# generated using pymatgen
data_NaSr2Ca3Gd2MgTi5Al3Ga2Co3Cu4Ag7SnSbTeRu3I
_symmetry_space_group_name_H-M   'P 1'
_cell_length_a   4.53447056
_cell_length_b   6.23771715
_cell_length_c   6.96270227
_cell_angle_alpha   84.41940308
_cell_angle_beta   78.29293823
_cell_angle_gamma   77.43684387
_symmetry_Int_Tables_number   1
_chemical_formula_structural
NaSr2Ca3Gd2MgTi5Al3Ga2Co3Cu4Ag7SnSbTeRu3I
_chemical_formula_sum
'Na1 Sr2 Ca3 Gd2 Mg1 Ti5 Al3 Ga2 Co3 Cu4 Ag7 Sn1 Sb1 Te1 Ru3 I1'
_cell_volume   187.93343918
_cell_formula_units_Z   1
loop_
 _symmetry_equiv_pos_site_id
 _symmetry_equiv_pos_as_xyz
  1  'x, y, z'
loop_
 _atom_site_type_symbol
 _atom_site_label
 _atom_site_symmetry_multiplicity
 _atom_site_fract_x
 _atom_site_fract_y
 _atom_site_fract_z
 _atom_site_occupancy
  Cu  Cu0  1  0.78651172  0.51301926  0.56916642  1
  Cu  Cu1  1  0.39207163  0.50739551  0.36320612  1
  Gd  Gd2  1  0.79423571  0.82165062  0.24063972  1
  Mg  Mg3  1  0.06128003  0.23409545  0.29854098  1
  Ag  Ag4  1  0.33971962  0.99465179  0.96691060  1
  Ag  Ag5  1  0.41182250  0.20845656  0.61599183  1
  Ca  Ca6  1  0.06872974  0.82942754  0.68148845  1
  Gd  Gd7  1  0.63789582  0.39701241  0.95827413  1
  Sb  Sb8  1  0.84393883  0.93584275  0.65567422  1
  Cu  Cu9  1  0.64805990  0.76908553  0.24400800  1
  Te  Te10  1  0.43899953  0.59588003  0.82824445  1
  I  I11  1  0.15269133  0.26441640  0.24476863  1
  Co  Co12  1  0.00747514  0.98790658  0.01209714  1
  Ti  Ti13  1  0.00475624  0.98523855  0.25741449  1
  Co  Co14  1  0.34134591  0.65323615  0.84595847  1
  Ru  Ru15  1  0.67938787  0.31993899  0.68293715  1
  Co  Co16  1  0.66320407  0.31359404  0.17754759  1
  Ti  Ti17  1  0.67158914  0.31941649  0.42814824  1
  Ru  Ru18  1  0.33502063  0.65054822  0.34154466  1
  Ti  Ti19  1  0.66860867  0.31209639  0.93193036  1
  Ru  Ru20  1  0.00303707  0.98538262  0.50935763  1
  Ti  Ti21  1  0.01471359  0.98794699  0.76377296  1
  Ti  Ti22  1  0.33516589  0.64405453  0.09525309  1
  Ga  Ga23  1  0.34328988  0.65255797  0.59676158  1
  Ag  Ag24  1  0.39549762  0.35968301  0.45082581  1
  Na  Na25  1  0.87575364  0.24930264  0.25597861  1
  Ag  Ag26  1  0.12000999  0.82589602  0.34619850  1
  Ca  Ca27  1  0.64437163  0.89822489  0.55843633  1
  Sn  Sn28  1  0.75705814  0.58827251  0.90904558  1
  Ga  Ga29  1  0.12605435  0.74759835  0.73562604  1
  Ca  Ca30  1  0.25868094  0.34892756  0.91552699  1
  Cu  Cu31  1  0.41441184  0.91067415  0.06863546  1
  Sr  Sr32  1  0.39380312  0.88423562  0.61910689  1
  Sr  Sr33  1  0.89262402  0.38770932  0.11825702  1
  Al  Al34  1  0.94385242  0.17067717  0.50222272  1
  Ag  Ag35  1  0.84573567  0.59853184  0.72905493  1
  Ag  Ag36  1  0.63887334  0.86503571  0.13702887  1
  Ag  Ag37  1  0.43696195  0.28273821  0.40492699  1
  Al  Al38  1  0.33675748  0.48840877  0.82592714  1
  Al  Al39  1  0.13849027  0.90011162  0.10588548  1
