# generated using pymatgen
data_LiCa6GdTi3Tl2Cd2Ga3Co2Cu3Ag6Hg2PdRu4(PbI)2
_symmetry_space_group_name_H-M   'P 1'
_cell_length_a   4.53447056
_cell_length_b   6.23771715
_cell_length_c   6.96270227
_cell_angle_alpha   84.41940308
_cell_angle_beta   78.29293823
_cell_angle_gamma   77.43684387
_symmetry_Int_Tables_number   1
_chemical_formula_structural
LiCa6GdTi3Tl2Cd2Ga3Co2Cu3Ag6Hg2PdRu4(PbI)2
_chemical_formula_sum
'Li1 Ca6 Gd1 Ti3 Tl2 Cd2 Ga3 Co2 Cu3 Ag6 Hg2 Pd1 Ru4 Pb2 I2'
_cell_volume   187.93343918
_cell_formula_units_Z   1
loop_
 _symmetry_equiv_pos_site_id
 _symmetry_equiv_pos_as_xyz
  1  'x, y, z'
loop_
 _atom_site_type_symbol
 _atom_site_label
 _atom_site_symmetry_multiplicity
 _atom_site_fract_x
 _atom_site_fract_y
 _atom_site_fract_z
 _atom_site_occupancy
  Ag  Ag0  1  0.09765869  0.81096315  0.87378716  1
  Gd  Gd1  1  0.49519587  0.40711653  0.47414902  1
  Ag  Ag2  1  0.06948562  0.53867948  0.18195412  1
  Pd  Pd3  1  0.10383838  0.07204909  0.58379018  1
  Cu  Cu4  1  0.50129128  0.06974041  0.79634112  1
  Ca  Ca5  1  0.78003675  0.41598812  0.89358670  1
  Ag  Ag6  1  0.77605778  0.79371440  0.50151646  1
  Ca  Ca7  1  0.34736529  0.96432310  0.19030598  1
  Cu  Cu8  1  0.02336793  0.92432594  0.91721493  1
  Li  Li9  1  0.44712067  0.48175442  0.76048720  1
  I  I10  1  0.12360090  0.47638705  0.11155805  1
  I  I11  1  0.83884025  0.05080776  0.54717624  1
  Co  Co12  1  0.91411257  0.62910509  0.44206238  1
  Ru  Ru13  1  0.25048417  0.30044365  0.10849176  1
  Ru  Ru14  1  0.91283101  0.62476271  0.93964267  1
  Ga  Ga15  1  0.24873370  0.29419598  0.85478568  1
  Ru  Ru16  1  0.24431740  0.29035518  0.60895586  1
  Ga  Ga17  1  0.57955098  0.96434748  0.52419984  1
  Co  Co18  1  0.57946587  0.96079755  0.77106196  1
  Ga  Ga19  1  0.91826963  0.63251042  0.19400111  1
  Ru  Ru20  1  0.57764655  0.96844840  0.27607226  1
  Ti  Ti21  1  0.91527927  0.63301480  0.68966120  1
  Ti  Ti22  1  0.24684915  0.29598838  0.35887074  1
  Ti  Ti23  1  0.58109176  0.96170527  0.02297383  1
  Ca  Ca24  1  0.85822433  0.58669460  0.47209460  1
  Pb  Pb25  1  0.37911394  0.87760818  0.65929520  1
  Cu  Cu26  1  0.62823015  0.65143198  0.95866144  1
  Cd  Cd27  1  0.37216350  0.38348746  0.14338192  1
  Ca  Ca28  1  0.12636963  0.87177432  0.12248001  1
  Ag  Ag29  1  0.31133267  0.37744084  0.63827562  1
  Cd  Cd30  1  0.64649385  0.05399773  0.31595671  1
  Pb  Pb31  1  0.88083059  0.22847721  0.84176743  1
  Tl  Tl32  1  0.59349650  0.16104537  0.43267462  1
  Tl  Tl33  1  0.10014348  0.54024231  0.24927843  1
  Ag  Ag34  1  0.61119044  0.23244435  0.04223436  1
  Hg  Hg35  1  0.61476314  0.57540900  0.94788432  1
  Ag  Ag36  1  0.08501223  0.46664059  0.63788766  1
  Ca  Ca37  1  0.59730965  0.75906485  0.60213137  1
  Hg  Hg38  1  0.08538510  0.11584429  0.72905052  1
  Ca  Ca39  1  0.10492697  0.94230735  0.08356270  1
