# generated using pymatgen
data_Yb2Sm3GdHo2Hf2Ti2Al4TlCrGePS4Cl2(O5F4)4
_symmetry_space_group_name_H-M   'P 1'
_cell_length_a   5.06651592
_cell_length_b   6.96818829
_cell_length_c   9.07620811
_cell_angle_alpha   103.01397705
_cell_angle_beta   93.83329773
_cell_angle_gamma   96.98336029
_symmetry_Int_Tables_number   1
_chemical_formula_structural
Yb2Sm3GdHo2Hf2Ti2Al4TlCrGePS4Cl2(O5F4)4
_chemical_formula_sum
'Yb2 Sm3 Gd1 Ho2 Hf2 Ti2 Al4 Tl1 Cr1 Ge1 P1 S4 Cl2 O20 F16'
_cell_volume   308.40955817
_cell_formula_units_Z   1
loop_
 _symmetry_equiv_pos_site_id
 _symmetry_equiv_pos_as_xyz
  1  'x, y, z'
loop_
 _atom_site_type_symbol
 _atom_site_label
 _atom_site_symmetry_multiplicity
 _atom_site_fract_x
 _atom_site_fract_y
 _atom_site_fract_z
 _atom_site_occupancy
  O  O0  1  0.98336160  0.18996584  0.31518042  1
  O  O1  1  0.53280342  0.39344054  0.21458443  1
  O  O2  1  0.01777529  0.41807610  0.59896892  1
  O  O3  1  0.62812960  0.81895411  0.20867127  1
  Hf  Hf4  1  0.56174409  0.55571723  0.04786547  1
  Sm  Sm5  1  0.14784777  0.88176131  0.30999357  1
  Sm  Sm6  1  0.05845619  0.75800616  0.69416177  1
  S  S7  1  0.06765333  0.54241014  0.05613816  1
  S  S8  1  0.14378990  0.00272061  0.99109310  1
  O  O9  1  0.47819501  0.16448930  0.45371407  1
  O  O10  1  0.92052901  0.97079986  0.55860531  1
  O  O11  1  0.25318074  0.67457598  0.45918041  1
  S  S12  1  0.56994027  0.72046405  0.82548118  1
  S  S13  1  0.58922964  0.24898435  0.82833588  1
  Sm  Sm14  1  0.68159437  0.08799603  0.09610089  1
  Hf  Hf15  1  0.29281509  0.38939995  0.40416074  1
  Ge  Ge16  1  0.78252214  0.19586231  0.57946849  1
  F  F17  1  0.58118480  0.56888694  0.43498403  1
  F  F18  1  0.85529613  0.29152864  0.63539714  1
  Tl  Tl19  1  0.23174784  0.91685313  0.54999441  1
  Al  Al20  1  0.66074228  0.42431566  0.29776913  1
  O  O21  1  0.52403396  0.07787486  0.27170861  1
  F  F22  1  0.57009953  0.58051944  0.20544834  1
  F  F23  1  0.66670030  0.89526403  0.02805572  1
  Al  Al24  1  0.37308133  0.77753687  0.15658736  1
  F  F25  1  0.52734345  0.59151918  0.70821947  1
  F  F26  1  0.91653186  0.22977467  0.85264951  1
  F  F27  1  0.04908888  0.60014254  0.28938985  1
  Al  Al28  1  0.05077426  0.08814938  0.96010792  1
  F  F29  1  0.16656503  0.93178225  0.07359777  1
  F  F30  1  0.11830190  0.41201124  0.07121832  1
  F  F31  1  0.44160467  0.29505685  0.89639282  1
  Al  Al32  1  0.73361170  0.42398551  0.77362972  1
  F  F33  1  0.01851987  0.76944590  0.83371288  1
  Ti  Ti34  1  0.65067214  0.08008185  0.62593126  1
  O  O35  1  0.14952016  0.07798361  0.62349415  1
  O  O36  1  0.64913034  0.08414723  0.12177448  1
  O  O37  1  0.64856929  0.58182818  0.62662435  1
  Ti  Ti38  1  0.71914953  0.85146856  0.60226905  1
  O  O39  1  0.16085061  0.92037261  0.12006941  1
  O  O40  1  0.78262621  0.93042749  0.32735437  1
  O  O41  1  0.79126287  0.29573464  0.11325026  1
  O  O42  1  0.47681007  0.61116815  0.50676340  1
  F  F43  1  0.97759998  0.60563165  0.61197013  1
  F  F44  1  0.47532082  0.10982171  0.61231977  1
  P  P45  1  0.97789377  0.10686534  0.20798059  1
  O  O46  1  0.16846839  0.29835773  0.32560378  1
  Cr  Cr47  1  0.23433243  0.36427972  0.60552192  1
  F  F48  1  0.67453241  0.79865682  0.88605022  1
  Gd  Gd49  1  0.47768265  0.60978055  0.15242228  1
  F  F50  1  0.28809997  0.42308810  0.88643849  1
  F  F51  1  0.97765553  0.11213215  0.68425089  1
  Ho  Ho52  1  0.69487447  0.09140516  0.58775961  1
  O  O53  1  0.85533595  0.24939790  0.91513717  1
  O  O54  1  0.72808564  0.79263186  0.65560842  1
  O  O55  1  0.35533792  0.76144695  0.92402434  1
  Yb  Yb56  1  0.38791490  0.45233417  0.97614235  1
  Ho  Ho57  1  0.88911223  0.95255375  0.98497641  1
  Cl  Cl58  1  0.53322804  0.26701039  0.28753632  1
  Cl  Cl59  1  0.03788890  0.77716023  0.28585556  1
  O  O60  1  0.22269125  0.27781421  0.65140849  1
  Yb  Yb61  1  0.18995355  0.58752024  0.58695191  1
