# generated using pymatgen
data_Na2Li2Ca3SmMgTi3In2Ga2CoCu4Ag2Hg4GeSb6Ru5Pb
_symmetry_space_group_name_H-M   'P 1'
_cell_length_a   4.53447056
_cell_length_b   6.23771715
_cell_length_c   6.96270227
_cell_angle_alpha   84.41940308
_cell_angle_beta   78.29293823
_cell_angle_gamma   77.43684387
_symmetry_Int_Tables_number   1
_chemical_formula_structural
Na2Li2Ca3SmMgTi3In2Ga2CoCu4Ag2Hg4GeSb6Ru5Pb
_chemical_formula_sum
'Na2 Li2 Ca3 Sm1 Mg1 Ti3 In2 Ga2 Co1 Cu4 Ag2 Hg4 Ge1 Sb6 Ru5 Pb1'
_cell_volume   187.93343918
_cell_formula_units_Z   1
loop_
 _symmetry_equiv_pos_site_id
 _symmetry_equiv_pos_as_xyz
  1  'x, y, z'
loop_
 _atom_site_type_symbol
 _atom_site_label
 _atom_site_symmetry_multiplicity
 _atom_site_fract_x
 _atom_site_fract_y
 _atom_site_fract_z
 _atom_site_occupancy
  Mg  Mg0  1  0.57840204  0.76046687  0.11491813  1
  Cu  Cu1  1  0.85934514  0.49834892  0.79716963  1
  Ag  Ag2  1  0.25631574  0.52156746  0.99733877  1
  Ca  Ca3  1  0.81899148  0.17734021  0.20138350  1
  Pb  Pb4  1  0.01456708  0.59063190  0.40107831  1
  Sm  Sm5  1  0.19322005  0.94801944  0.66154033  1
  Cu  Cu6  1  0.50441134  0.11356782  0.90026909  1
  Ag  Ag7  1  0.51254421  0.37218130  0.60621858  1
  Sb  Sb8  1  0.57790291  0.47290108  0.86787754  1
  Sb  Sb9  1  0.39110285  0.95510364  0.52820963  1
  Li  Li10  1  0.85165077  0.43576869  0.42950469  1
  Li  Li11  1  0.12792875  0.99141860  0.96036756  1
  Ru  Ru12  1  0.16237085  0.80632144  0.41975868  1
  Ga  Ga13  1  0.81799024  0.13136132  0.34389931  1
  Ru  Ru14  1  0.47565070  0.46487683  0.75069660  1
  Ge  Ge15  1  0.14739773  0.80060148  0.16942365  1
  Ga  Ga16  1  0.81489724  0.13710067  0.83929598  1
  Ti  Ti17  1  0.14955145  0.80527079  0.66904867  1
  Ti  Ti18  1  0.47758272  0.46296978  0.00621181  1
  Ru  Ru19  1  0.48050335  0.47189087  0.25367028  1
  Co  Co20  1  0.81858385  0.13491444  0.58805549  1
  Ti  Ti21  1  0.48523051  0.46828535  0.50109011  1
  Ru  Ru22  1  0.13844550  0.79567623  0.92293292  1
  Ru  Ru23  1  0.81640476  0.13700998  0.09171660  1
  Cu  Cu24  1  0.47771910  0.93536204  0.94401097  1
  Sb  Sb25  1  0.79619807  0.75402701  0.62554932  1
  Na  Na26  1  0.25975087  0.43596631  0.42006603  1
  Sb  Sb27  1  0.79375070  0.13373910  0.31614688  1
  Cu  Cu28  1  0.47196341  0.93644255  0.43987173  1
  Na  Na29  1  0.69762748  0.43740821  0.97156829  1
  Sb  Sb30  1  0.16221009  0.12430772  0.76107591  1
  Sb  Sb31  1  0.16481853  0.73640251  0.06985621  1
  Hg  Hg32  1  0.27793959  0.93300670  0.55662608  1
  In  In33  1  0.77454853  0.61431837  0.39589444  1
  Ca  Ca34  1  0.27894264  0.44047105  0.57555950  1
  Hg  Hg35  1  0.28073651  0.45976362  0.07985201  1
  Hg  Hg36  1  0.77533901  0.09611446  0.38742477  1
  Ca  Ca37  1  0.77854258  0.11762369  0.89675629  1
  In  In38  1  0.28182364  0.94189107  0.06822750  1
  Hg  Hg39  1  0.78365153  0.62599570  0.91763371  1
