# generated using pymatgen
data_Ba2CaYbPr2SmHf2UTaTi2Al3Tl2GeO16F27
_symmetry_space_group_name_H-M   'P 1'
_cell_length_a   5.06651592
_cell_length_b   6.96818829
_cell_length_c   9.07620811
_cell_angle_alpha   103.01397705
_cell_angle_beta   93.83329773
_cell_angle_gamma   96.98336029
_symmetry_Int_Tables_number   1
_chemical_formula_structural   Ba2CaYbPr2SmHf2UTaTi2Al3Tl2GeO16F27
_chemical_formula_sum
'Ba2 Ca1 Yb1 Pr2 Sm1 Hf2 U1 Ta1 Ti2 Al3 Tl2 Ge1 O16 F27'
_cell_volume   308.40955817
_cell_formula_units_Z   1
loop_
 _symmetry_equiv_pos_site_id
 _symmetry_equiv_pos_as_xyz
  1  'x, y, z'
loop_
 _atom_site_type_symbol
 _atom_site_label
 _atom_site_symmetry_multiplicity
 _atom_site_fract_x
 _atom_site_fract_y
 _atom_site_fract_z
 _atom_site_occupancy
  O  O0  1  0.29763836  0.46837950  0.98840803  1
  Ba  Ba1  1  0.06272180  0.67134023  0.53856081  1
  O  O2  1  0.26948676  0.98376065  0.40721038  1
  Hf  Hf3  1  0.56752843  0.23390087  0.53054029  1
  O  O4  1  0.27497065  0.32300958  0.65759999  1
  O  O5  1  0.28623736  0.07021471  0.13759746  1
  O  O6  1  0.72698194  0.02260498  0.63363063  1
  Ba  Ba7  1  0.56139863  0.80630064  0.90710032  1
  O  O8  1  0.14844824  0.95740199  0.80572492  1
  O  O9  1  0.77956909  0.21770291  0.97911799  1
  Sm  Sm10  1  0.58479643  0.39913446  0.17151266  1
  O  O11  1  0.83200371  0.74149436  0.17972830  1
  O  O12  1  0.84981251  0.20891802  0.34635663  1
  U  U13  1  0.02102412  0.25325477  0.81407654  1
  O  O14  1  0.80543125  0.45545271  0.72525513  1
  Ge  Ge15  1  0.05045877  0.00035444  0.26145536  1
  O  O16  1  0.51630193  0.48745838  0.42927942  1
  F  F17  1  0.97354388  0.93932760  0.47697988  1
  Al  Al18  1  0.24728215  0.85568053  0.38847792  1
  Tl  Tl19  1  0.65368712  0.68904263  0.68035734  1
  F  F20  1  0.20422503  0.76606637  0.76436603  1
  F  F21  1  0.29974514  0.35936332  0.86418384  1
  Al  Al22  1  0.07198160  0.53289247  0.89126456  1
  F  F23  1  0.35171336  0.83948696  0.00533279  1
  Tl  Tl24  1  0.50533557  0.37409583  0.08776334  1
  Al  Al25  1  0.91059595  0.19483721  0.39372346  1
  F  F26  1  0.95823318  0.31957594  0.02798260  1
  F  F27  1  0.15984561  0.10357744  0.30090985  1
  F  F28  1  0.55397302  0.88297737  0.30271500  1
  F  F29  1  0.93522727  0.49407136  0.30641896  1
  F  F30  1  0.21237868  0.55726987  0.47886884  1
  F  F31  1  0.86212134  0.72051561  0.92353833  1
  F  F32  1  0.80544597  0.23668255  0.77993035  1
  F  F33  1  0.59776980  0.17308527  0.48365262  1
  O  O34  1  0.71973783  0.03908249  0.97468156  1
  Ta  Ta35  1  0.72823507  0.54246306  0.97211099  1
  O  O36  1  0.72511458  0.53905010  0.46853045  1
  O  O37  1  0.23343383  0.53660762  0.96722627  1
  F  F38  1  0.94958293  0.15211459  0.10424671  1
  Hf  Hf39  1  0.67570305  0.42956427  0.97897857  1
  F  F40  1  0.91122806  0.67017853  0.92067343  1
  F  F41  1  0.43276188  0.19575451  0.92730266  1
  O  O42  1  0.67042339  0.43171722  0.31745526  1
  F  F43  1  0.16723098  0.42947045  0.41810256  1
  Ca  Ca44  1  0.17326878  0.93400574  0.85545063  1
  F  F45  1  0.47939008  0.62171710  0.71782154  1
  Ti  Ti46  1  0.91631299  0.17757647  0.41649818  1
  Ti  Ti47  1  0.41887510  0.68055981  0.41469762  1
  F  F48  1  0.85465646  0.23769930  0.71187806  1
  F  F49  1  0.39052251  0.71316016  0.10704709  1
  F  F50  1  0.66765589  0.92954612  0.41574261  1
  O  O51  1  0.15974641  0.94030470  0.48309186  1
  F  F52  1  0.02949926  0.31359851  0.95464289  1
  Pr  Pr53  1  0.50237143  0.03765022  0.91599298  1
  Yb  Yb54  1  0.85216594  0.37584266  0.60035694  1
  F  F55  1  0.34868547  0.60089874  0.60017943  1
  Pr  Pr56  1  0.19710068  0.72384387  0.29422528  1
  F  F57  1  0.67692888  0.44052786  0.25811657  1
  F  F58  1  0.84567177  0.87784505  0.60213208  1
  F  F59  1  0.35034022  0.15657020  0.60316277  1
  F  F60  1  0.67636907  0.97292846  0.26142821  1
  F  F61  1  0.02795435  0.79582071  0.94959754  1
