# generated using pymatgen
data_Li2Ca5PmMg2Ti4Tl2Ga2Co2Cu3Ag3Sn4Hg4(SbRu2)2
_symmetry_space_group_name_H-M   'P 1'
_cell_length_a   4.53447056
_cell_length_b   6.23771715
_cell_length_c   6.96270227
_cell_angle_alpha   84.41940308
_cell_angle_beta   78.29293823
_cell_angle_gamma   77.43684387
_symmetry_Int_Tables_number   1
_chemical_formula_structural
Li2Ca5PmMg2Ti4Tl2Ga2Co2Cu3Ag3Sn4Hg4(SbRu2)2
_chemical_formula_sum
'Li2 Ca5 Pm1 Mg2 Ti4 Tl2 Ga2 Co2 Cu3 Ag3 Sn4 Hg4 Sb2 Ru4'
_cell_volume   187.93343918
_cell_formula_units_Z   1
loop_
 _symmetry_equiv_pos_site_id
 _symmetry_equiv_pos_as_xyz
  1  'x, y, z'
loop_
 _atom_site_type_symbol
 _atom_site_label
 _atom_site_symmetry_multiplicity
 _atom_site_fract_x
 _atom_site_fract_y
 _atom_site_fract_z
 _atom_site_occupancy
  Cu  Cu0  1  0.02494230  0.35253188  0.84345871  1
  Mg  Mg1  1  0.39956498  0.58891910  0.73861754  1
  Ag  Ag2  1  0.29683051  0.81806308  0.36191976  1
  Mg  Mg3  1  0.85376316  0.70332783  0.10150149  1
  Ag  Ag4  1  0.95533389  0.48016420  0.47641772  1
  Ca  Ca5  1  0.53767037  0.28179231  0.17543444  1
  Ag  Ag6  1  0.21592686  0.96935737  0.98419505  1
  Pm  Pm7  1  0.69670737  0.02807800  0.65450269  1
  Li  Li8  1  0.00100729  0.63156861  0.97555059  1
  Sb  Sb9  1  0.47336605  0.11162930  0.93191165  1
  Li  Li10  1  0.77752399  0.05742127  0.53446078  1
  Sb  Sb11  1  0.29432383  0.57059091  0.57301378  1
  Ga  Ga12  1  0.75258124  0.29835001  0.29816249  1
  Ru  Ru13  1  0.42135489  0.63117737  0.38406897  1
  Ti  Ti14  1  0.09335042  0.96224129  0.96511054  1
  Ti  Ti15  1  0.08051330  0.96079302  0.46413153  1
  Ru  Ru16  1  0.75929773  0.30747002  0.55197614  1
  Ti  Ti17  1  0.42628333  0.63639754  0.12908012  1
  Ru  Ru18  1  0.09500302  0.96684456  0.71587634  1
  Ti  Ti19  1  0.76604784  0.30205545  0.80389869  1
  Ga  Ga20  1  0.41758952  0.62841260  0.63483369  1
  Co  Co21  1  0.42611912  0.63577867  0.88282555  1
  Ru  Ru22  1  0.08515871  0.96482736  0.21387820  1
  Co  Co23  1  0.76176858  0.30248222  0.04916543  1
  Cu  Cu24  1  0.80431813  0.12101334  0.97237283  1
  Sn  Sn25  1  0.49665126  0.43448204  0.09275869  1
  Sn  Sn26  1  0.49039647  0.74156845  0.77674627  1
  Ca  Ca27  1  0.58982164  0.09661257  0.45132548  1
  Cu  Cu28  1  0.80132127  0.62221217  0.47612983  1
  Sn  Sn29  1  0.12095246  0.00887412  0.66533220  1
  Sn  Sn30  1  0.11825849  0.31501701  0.35064590  1
  Ca  Ca31  1  0.01870343  0.65040624  0.99834239  1
  Tl  Tl32  1  0.19554314  0.09185290  0.55268359  1
  Hg  Hg33  1  0.69937629  0.92011732  0.22197175  1
  Tl  Tl34  1  0.70538217  0.42266554  0.21864992  1
  Ca  Ca35  1  0.19713290  0.08709255  0.04762543  1
  Hg  Hg36  1  0.19641149  0.59707862  0.54732496  1
  Hg  Hg37  1  0.69429070  0.92246979  0.70866144  1
  Hg  Hg38  1  0.20100260  0.59552687  0.05702733  1
  Ca  Ca39  1  0.70157224  0.43271497  0.72102076  1
