# generated using pymatgen
data_CsK3Rb4EuDy4HoTmZr2Sc3AlS6O10F23
_symmetry_space_group_name_H-M   'P 1'
_cell_length_a   6.07587099
_cell_length_b   5.94029474
_cell_length_c   6.20144558
_cell_angle_alpha   84.00587463
_cell_angle_beta   70.00710297
_cell_angle_gamma   71.27500916
_symmetry_Int_Tables_number   1
_chemical_formula_structural   CsK3Rb4EuDy4HoTmZr2Sc3AlS6O10F23
_chemical_formula_sum
'Cs1 Rb4 K3 Eu1 Dy4 Ho1 Tm1 Zr2 Sc3 Al1 S6 O10 F23'
_cell_volume   199.19999499
_cell_formula_units_Z   1
loop_
 _symmetry_equiv_pos_site_id
 _symmetry_equiv_pos_as_xyz
  1  'x, y, z'
loop_
 _atom_site_type_symbol
 _atom_site_label
 _atom_site_symmetry_multiplicity
 _atom_site_fract_x
 _atom_site_fract_y
 _atom_site_fract_z
 _atom_site_occupancy
  F  F0  1  0.05290474  0.72580475  0.71266139  1
  F  F1  1  0.04674454  0.04356458  0.40634662  1
  Al  Al2  1  0.83845007  0.02862345  0.70464408  1
  F  F3  1  0.67809314  0.91009957  0.58145255  1
  F  F4  1  0.63015395  0.32610312  0.68536204  1
  F  F5  1  0.63024789  0.01073264  0.99977171  1
  Rb  Rb6  1  0.33849409  0.25840262  0.47276333  1
  F  F7  1  0.99185777  0.15108791  0.82692987  1
  Rb  Rb8  1  0.34331182  0.79557908  0.92884505  1
  Cs  Cs9  1  0.83592856  0.53064507  0.20745641  1
  K  K10  1  0.68296367  0.80143809  0.84848332  1
  F  F11  1  0.40722954  0.07097866  0.11235888  1
  Rb  Rb12  1  0.44110793  0.56182134  0.60856706  1
  F  F13  1  0.94870478  0.52539915  0.11521727  1
  Rb  Rb14  1  0.93028402  0.04545073  0.08479825  1
  F  F15  1  0.41409469  0.08384015  0.57960558  1
  F  F16  1  0.42263812  0.53851503  0.12671590  1
  Eu  Eu17  1  0.18721750  0.30088636  0.34406894  1
  F  F18  1  0.96345955  0.53945309  0.57931232  1
  F  F19  1  0.95203763  0.07771773  0.56099916  1
  O  O20  1  0.70013016  0.76512903  0.92268479  1
  O  O21  1  0.10826848  0.02093130  0.94006038  1
  Zr  Zr22  1  0.73913425  0.50075084  0.14221703  1
  Dy  Dy23  1  0.11189762  0.67364901  0.38323385  1
  Dy  Dy24  1  0.22586301  0.75363111  0.81986982  1
  O  O25  1  0.63693762  0.73591048  0.26303545  1
  O  O26  1  0.91001225  0.38896155  0.43002310  1
  O  O27  1  0.24569052  0.54771149  0.63644445  1
  F  F28  1  0.72806245  0.80671275  0.58836436  1
  Dy  Dy29  1  0.71617538  0.11714999  0.48229343  1
  Zr  Zr30  1  0.08457350  0.28693756  0.72348911  1
  O  O31  1  0.59128195  0.20486617  0.75872660  1
  O  O32  1  0.19627278  0.05272613  0.59738636  1
  O  O33  1  0.23827502  0.58852625  0.11343829  1
  O  O34  1  0.59471631  0.23589265  0.21252888  1
  F  F35  1  0.10720597  0.98415250  0.29064718  1
  Dy  Dy36  1  0.57691485  0.02156040  0.04706453  1
  O  O37  1  0.94629061  0.41087642  0.92026967  1
  Sc  Sc38  1  0.22385457  0.73517972  0.84242880  1
  F  F39  1  0.35917798  0.09761878  0.02040874  1
  F  F40  1  0.45945585  0.64531744  0.06415580  1
  F  F41  1  0.52255726  0.19191855  0.38474131  1
  F  F42  1  0.73918009  0.82927024  0.79181272  1
  F  F43  1  0.61951059  0.73171169  0.42408654  1
  F  F44  1  0.87304348  0.39411309  0.84857678  1
  F  F45  1  0.23498233  0.99863148  0.65866035  1
  Sc  Sc46  1  0.75498390  0.10101018  0.60875779  1
  F  F47  1  0.98826092  0.41742980  0.22206917  1
  Sc  Sc48  1  0.48411486  0.41682166  0.22107458  1
  F  F49  1  0.11222092  0.44418108  0.59830505  1
  S  S50  1  0.89388102  0.09628805  0.94525295  1
  K  K51  1  0.37977558  0.77290303  0.27642286  1
  S  S52  1  0.87739146  0.95030433  0.45477110  1
  S  S53  1  0.38955984  0.27733716  0.27357361  1
  Ho  Ho54  1  0.88307869  0.27688923  0.27449971  1
  Tm  Tm55  1  0.88179660  0.77474856  0.77472365  1
  S  S56  1  0.88559377  0.60014039  0.09065044  1
  S  S57  1  0.88416582  0.44500124  0.60229897  1
  S  S58  1  0.38625711  0.77095258  0.77332687  1
  K  K59  1  0.39261281  0.27191955  0.77105594  1
