# generated using pymatgen
data_CaCe3Th2ScUTi3Al2ZnSi5P3O39F2
_symmetry_space_group_name_H-M   'P 1'
_cell_length_a   4.49266720
_cell_length_b   7.58594275
_cell_length_c   7.73077059
_cell_angle_alpha   112.31594086
_cell_angle_beta   90.32151031
_cell_angle_gamma   103.39410400
_symmetry_Int_Tables_number   1
_chemical_formula_structural   CaCe3Th2ScUTi3Al2ZnSi5P3O39F2
_chemical_formula_sum
'Ca1 Ce3 Th2 Sc1 U1 Ti3 Al2 Zn1 Si5 P3 O39 F2'
_cell_volume   235.82526682
_cell_formula_units_Z   1
loop_
 _symmetry_equiv_pos_site_id
 _symmetry_equiv_pos_as_xyz
  1  'x, y, z'
loop_
 _atom_site_type_symbol
 _atom_site_label
 _atom_site_symmetry_multiplicity
 _atom_site_fract_x
 _atom_site_fract_y
 _atom_site_fract_z
 _atom_site_occupancy
  O  O0  1  0.67725635  0.37561351  0.14447045  1
  F  F1  1  0.87690163  0.54150623  0.50665915  1
  Si  Si2  1  0.61455220  0.50526297  0.35450450  1
  F  F3  1  0.28773540  0.00520703  0.49365404  1
  Si  Si4  1  0.53313398  0.93603337  0.36052102  1
  Ca  Ca5  1  0.08132511  0.13978247  0.14307317  1
  Si  Si6  1  0.68020511  0.25016469  0.91574025  1
  O  O7  1  0.44030803  0.02868310  0.90183491  1
  O  O8  1  0.81873870  0.10002578  0.39202440  1
  O  O9  1  0.78677505  0.85136890  0.96163332  1
  O  O10  1  0.35839707  0.89683199  0.15703712  1
  Ce  Ce11  1  0.11286880  0.33391050  0.64101917  1
  P  P12  1  0.47314286  0.83954895  0.94513738  1
  O  O13  1  0.35441813  0.37367341  0.39433417  1
  O  O14  1  0.00317669  0.23656918  0.89279717  1
  O  O15  1  0.57936919  0.72474450  0.36630136  1
  O  O16  1  0.59609932  0.34266734  0.77686167  1
  O  O17  1  0.27008712  0.65763175  0.82759386  1
  O  O18  1  0.22013727  0.47962543  0.93966615  1
  O  O19  1  0.21962883  0.97923493  0.43741590  1
  Ti  Ti20  1  0.71790779  0.98004484  0.43840012  1
  Ti  Ti21  1  0.72030383  0.47135729  0.93841183  1
  O  O22  1  0.72200930  0.47827014  0.44215316  1
  Ti  Ti23  1  0.22986130  0.47409204  0.44210145  1
  Zn  Zn24  1  0.23389432  0.97145319  0.93800551  1
  O  O25  1  0.72434270  0.97583425  0.93759239  1
  U  U26  1  0.87412411  0.04923358  0.18762101  1
  O  O27  1  0.82899827  0.48619932  0.57291007  1
  O  O28  1  0.37519246  0.11047018  0.74843973  1
  P  P29  1  0.20334026  0.59202075  0.06551631  1
  O  O30  1  0.40255329  0.65925097  0.66173947  1
  O  O31  1  0.86681044  0.91455168  0.39822778  1
  O  O32  1  0.15133134  0.37184283  0.13775098  1
  O  O33  1  0.68386102  0.97802776  0.92857778  1
  O  O34  1  0.05586148  0.78621542  0.11725645  1
  O  O35  1  0.13343984  0.49094310  0.89035904  1
  O  O36  1  0.68085366  0.29107034  0.24602142  1
  O  O37  1  0.49394137  0.72034615  0.14015701  1
  Th  Th38  1  0.08800083  0.27596626  0.62461466  1
  O  O39  1  0.21669762  0.27154219  0.39843667  1
  Th  Th40  1  0.57144141  0.57779849  0.40711400  1
  O  O41  1  0.74752533  0.00878161  0.66568452  1
  P  P42  1  0.54904461  0.94280988  0.75499237  1
  O  O43  1  0.30652112  0.04420024  0.10122134  1
  Ce  Ce44  1  0.22670159  0.35450804  0.44459280  1
  O  O45  1  0.94515115  0.68803877  0.59041893  1
  O  O46  1  0.53721523  0.79107964  0.78925425  1
  O  O47  1  0.66437382  0.17323202  0.59058583  1
  O  O48  1  0.26312435  0.29285365  0.79449874  1
  O  O49  1  0.89816922  0.91362178  0.28554940  1
  Si  Si50  1  0.72219867  0.85060489  0.43620047  1
  Ce  Ce51  1  0.97476423  0.61336416  0.94249767  1
  Si  Si52  1  0.47889015  0.10843451  0.94471443  1
  O  O53  1  0.80960429  0.32113805  0.09377119  1
  O  O54  1  0.39973152  0.63497716  0.28907281  1
  O  O55  1  0.43664047  0.69591117  0.79871696  1
  O  O56  1  0.44046283  0.19773592  0.11877442  1
  Al  Al57  1  0.43526238  0.69606453  0.56471527  1
  Sc  Sc58  1  0.92967129  0.19276199  0.29933149  1
  O  O59  1  0.43520522  0.19383311  0.47518405  1
  O  O60  1  0.93192810  0.69529915  0.48149544  1
  Al  Al61  1  0.43590155  0.69060862  0.02804933  1
  O  O62  1  0.93699139  0.69467181  0.11733407  1
