# generated using pymatgen
data_Ca2LaCe3YTh2ScUTi4AlZn2BP3O33F8
_symmetry_space_group_name_H-M   'P 1'
_cell_length_a   4.49266720
_cell_length_b   7.58594275
_cell_length_c   7.73077059
_cell_angle_alpha   112.31594086
_cell_angle_beta   90.32151031
_cell_angle_gamma   103.39410400
_symmetry_Int_Tables_number   1
_chemical_formula_structural   Ca2LaCe3YTh2ScUTi4AlZn2BP3O33F8
_chemical_formula_sum
'Ca2 La1 Ce3 Y1 Th2 Sc1 U1 Ti4 Al1 Zn2 B1 P3 O33 F8'
_cell_volume   235.82526682
_cell_formula_units_Z   1
loop_
 _symmetry_equiv_pos_site_id
 _symmetry_equiv_pos_as_xyz
  1  'x, y, z'
loop_
 _atom_site_type_symbol
 _atom_site_label
 _atom_site_symmetry_multiplicity
 _atom_site_fract_x
 _atom_site_fract_y
 _atom_site_fract_z
 _atom_site_occupancy
  O  O0  1  0.46624541  0.53282487  0.35896468  1
  F  F1  1  0.55983448  0.19884470  0.01412886  1
  O  O2  1  0.46950391  0.69245231  0.73505855  1
  O  O3  1  0.45422336  0.78737384  0.10184623  1
  B  B4  1  0.60511506  0.62512410  0.53890538  1
  F  F5  1  0.14173831  0.32740521  0.91172451  1
  O  O6  1  0.91409779  0.65577978  0.55862957  1
  F  F7  1  0.73939270  0.04498518  0.63490033  1
  Ca  Ca8  1  0.33433220  0.11027448  0.24237855  1
  F  F9  1  0.10646442  0.88634437  0.37655297  1
  O  O10  1  0.77881384  0.57527441  0.93992543  1
  F  F11  1  0.88625687  0.24492134  0.32963657  1
  Ce  Ce12  1  0.98785901  0.52939546  0.20810486  1
  O  O13  1  0.95071274  0.93049610  0.96651518  1
  F  F14  1  0.38368329  0.25819060  0.57934129  1
  Ce  Ce15  1  0.22928771  0.01188548  0.71924812  1
  P  P16  1  0.66401356  0.74753988  0.94922364  1
  Ca  Ca17  1  0.95383960  0.39747378  0.66061789  1
  O  O18  1  0.12668838  0.11334610  0.87664914  1
  Ti  Ti19  1  0.87251145  0.35143930  0.12260230  1
  Zn  Zn20  1  0.87473613  0.84949672  0.62613124  1
  Ti  Ti21  1  0.37563539  0.35206696  0.62590069  1
  O  O22  1  0.62481248  0.11098511  0.38012281  1
  Zn  Zn23  1  0.37515518  0.85031551  0.12057723  1
  O  O24  1  0.12175778  0.58724153  0.37354621  1
  O  O25  1  0.62326163  0.59430784  0.87646180  1
  Th  Th26  1  0.65132368  0.97072244  0.95756519  1
  P  P27  1  0.25635150  0.22480595  0.83057249  1
  O  O28  1  0.07698555  0.20434733  0.67019683  1
  O  O29  1  0.21228503  0.89807391  0.80406010  1
  O  O30  1  0.49160290  0.47319567  0.28146002  1
  O  O31  1  0.34693947  0.57816720  0.93187404  1
  O  O32  1  0.79961723  0.39471245  0.49078840  1
  O  O33  1  0.55492496  0.24159141  0.80237079  1
  P  P34  1  0.66507077  0.32393089  0.30491698  1
  O  O35  1  0.03509783  0.23549190  0.94523722  1
  O  O36  1  0.92075384  0.73765236  0.00085437  1
  F  F37  1  0.63351089  0.71466035  0.70896780  1
  F  F38  1  0.20989956  0.88216674  0.40894553  1
  O  O39  1  0.86606038  0.34555778  0.20824136  1
  O  O40  1  0.51909691  0.02205933  0.20131031  1
  U  U41  1  0.91162622  0.50174159  0.75658619  1
  Th  Th42  1  0.20762545  0.63070267  0.16478679  1
  O  O43  1  0.04969212  0.23383923  0.78696287  1
  O  O44  1  0.98372883  0.19929826  0.13367429  1
  O  O45  1  0.12909728  0.85711783  0.44766375  1
  Ti  Ti46  1  0.68221790  0.93219769  0.53468651  1
  O  O47  1  0.74399883  0.68182778  0.66459584  1
  Ce  Ce48  1  0.93837702  0.67578304  0.04633150  1
  La  La49  1  0.18300262  0.41976857  0.53480774  1
  O  O50  1  0.59749442  0.15977053  0.35325515  1
  O  O51  1  0.52379125  0.59862018  0.22359966  1
  O  O52  1  0.56355196  0.23318541  0.79752487  1
  Ti  Ti53  1  0.43702149  0.18499188  0.04605543  1
  O  O54  1  0.37247360  0.80784261  0.92194098  1
  Y  Y55  1  0.86163682  0.06463022  0.77939677  1
  O  O56  1  0.36602929  0.06692414  0.96173465  1
  O  O57  1  0.86851931  0.57525802  0.97240901  1
  O  O58  1  0.86410207  0.06837252  0.47561118  1
  Sc  Sc59  1  0.85890698  0.56313515  0.42165929  1
  Al  Al60  1  0.35897964  0.57332206  0.02239965  1
  O  O61  1  0.36782718  0.56048465  0.26912972  1
  O  O62  1  0.36273918  0.57059282  0.66700310  1
