# generated using pymatgen
data_Rb2BaNa2AcLaMg2ScMn2Fe2SiNi2HgBi2N
_symmetry_space_group_name_H-M   'P 1'
_cell_length_a   3.56896901
_cell_length_b   5.67572832
_cell_length_c   6.40948486
_cell_angle_alpha   91.83692169
_cell_angle_beta   90.69073486
_cell_angle_gamma   92.64938354
_symmetry_Int_Tables_number   1
_chemical_formula_structural   Rb2BaNa2AcLaMg2ScMn2Fe2SiNi2HgBi2N
_chemical_formula_sum
'Rb2 Ba1 Na2 La1 Ac1 Mg2 Sc1 Mn2 Fe2 Si1 Ni2 Hg1 Bi2 N1'
_cell_volume   129.61637706
_cell_formula_units_Z   1
loop_
 _symmetry_equiv_pos_site_id
 _symmetry_equiv_pos_as_xyz
  1  'x, y, z'
loop_
 _atom_site_type_symbol
 _atom_site_label
 _atom_site_symmetry_multiplicity
 _atom_site_fract_x
 _atom_site_fract_y
 _atom_site_fract_z
 _atom_site_occupancy
  Fe  Fe0  1  0.33750576  0.94543356  0.45153660  1
  Mg  Mg1  1  0.82521272  0.16989744  0.70694655  1
  Si  Si2  1  0.83282983  0.66323286  0.44378111  1
  Fe  Fe3  1  0.33297616  0.38420230  0.44036078  1
  Mg  Mg4  1  0.83377111  0.16191815  0.18686350  1
  La  La5  1  0.33336931  0.66757566  0.94901949  1
  Mn  Mn6  1  0.80535597  0.12201154  0.01541897  1
  N  N7  1  0.51502907  0.12533024  0.01311995  1
  Mn  Mn8  1  0.22345078  0.12826663  0.01353749  1
  Na  Na9  1  0.51391190  0.62206978  0.00995683  1
  Ba  Ba10  1  0.01268395  0.62642270  0.51509863  1
  Na  Na11  1  0.51031971  0.12308916  0.51065707  1
  Sc  Sc12  1  0.93212897  0.71826023  0.83342159  1
  Hg  Hg13  1  0.44385618  0.21891230  0.33102480  1
  Rb  Rb14  1  0.32933471  0.27598083  0.45472041  1
  Rb  Rb15  1  0.10194003  0.89686692  0.89883584  1
  Ni  Ni16  1  0.43537241  0.69940865  0.24189046  1
  Ni  Ni17  1  0.01158163  0.48034343  0.11637460  1
  Bi  Bi18  1  0.83992076  0.77280909  0.43671125  1
  Bi  Bi19  1  0.60606557  0.40020785  0.92193502  1
  Ac  Ac20  1  0.37581003  0.48793507  0.73607838  1
