# generated using pymatgen
data_Rb2BaNa2AcLaMg2ScMn2Tl2Fe2SiNi2HgN
_symmetry_space_group_name_H-M   'P 1'
_cell_length_a   3.56896901
_cell_length_b   5.67572832
_cell_length_c   6.40948486
_cell_angle_alpha   91.83692169
_cell_angle_beta   90.69073486
_cell_angle_gamma   92.64938354
_symmetry_Int_Tables_number   1
_chemical_formula_structural   Rb2BaNa2AcLaMg2ScMn2Tl2Fe2SiNi2HgN
_chemical_formula_sum
'Rb2 Ba1 Na2 La1 Ac1 Mg2 Sc1 Mn2 Tl2 Fe2 Si1 Ni2 Hg1 N1'
_cell_volume   129.61637706
_cell_formula_units_Z   1
loop_
 _symmetry_equiv_pos_site_id
 _symmetry_equiv_pos_as_xyz
  1  'x, y, z'
loop_
 _atom_site_type_symbol
 _atom_site_label
 _atom_site_symmetry_multiplicity
 _atom_site_fract_x
 _atom_site_fract_y
 _atom_site_fract_z
 _atom_site_occupancy
  La  La0  1  0.33061320  0.34009826  0.12592372  1
  Mg  Mg1  1  0.82686716  0.84659582  0.36691159  1
  Si  Si2  1  0.83130783  0.34776914  0.62439084  1
  Mg  Mg3  1  0.83027047  0.83922732  0.87794214  1
  Fe  Fe4  1  0.33239964  0.61015171  0.62084734  1
  Fe  Fe5  1  0.33120403  0.07082514  0.61999696  1
  Mn  Mn6  1  0.08245351  0.61388147  0.10112769  1
  Na  Na7  1  0.79185593  0.62228221  0.60081285  1
  Na  Na8  1  0.78942198  0.11826275  0.10278611  1
  Mn  Mn9  1  0.49866903  0.62015676  0.10130639  1
  N  N10  1  0.78690583  0.61779290  0.10208753  1
  Ba  Ba11  1  0.29097414  0.12391603  0.59983504  1
  Sc  Sc12  1  0.88667095  0.19753937  0.92482007  1
  Hg  Hg13  1  0.38839111  0.70157796  0.42162451  1
  Ni  Ni14  1  0.28225169  0.42707741  0.73381472  1
  Rb  Rb15  1  0.58591408  0.21053119  0.08572417  1
  Rb  Rb16  1  0.40851197  0.83233798  0.49994200  1
  Tl  Tl17  1  0.88369167  0.33641219  0.54173332  1
  Tl  Tl18  1  0.10612180  0.70981961  0.04378361  1
  Ni  Ni19  1  0.69955593  0.61260372  0.85451347  1
  Ac  Ac20  1  0.91946197  0.86459297  0.95911503  1
