# generated using pymatgen
data_Ca2Ce2Th3ScTi3Al3ZnSi4P4(O19F)2
_symmetry_space_group_name_H-M   'P 1'
_cell_length_a   4.49266720
_cell_length_b   7.58594275
_cell_length_c   7.73077059
_cell_angle_alpha   112.31594086
_cell_angle_beta   90.32151031
_cell_angle_gamma   103.39410400
_symmetry_Int_Tables_number   1
_chemical_formula_structural   Ca2Ce2Th3ScTi3Al3ZnSi4P4(O19F)2
_chemical_formula_sum   'Ca2 Ce2 Th3 Sc1 Ti3 Al3 Zn1 Si4 P4 O38 F2'
_cell_volume   235.82526682
_cell_formula_units_Z   1
loop_
 _symmetry_equiv_pos_site_id
 _symmetry_equiv_pos_as_xyz
  1  'x, y, z'
loop_
 _atom_site_type_symbol
 _atom_site_label
 _atom_site_symmetry_multiplicity
 _atom_site_fract_x
 _atom_site_fract_y
 _atom_site_fract_z
 _atom_site_occupancy
  O  O0  1  0.26058191  0.22233829  0.80077982  1
  Si  Si1  1  0.24181141  0.49519861  0.39745963  1
  Ca  Ca2  1  0.58121562  0.28483593  0.58738595  1
  Si  Si3  1  0.23810519  0.81900454  0.19449279  1
  O  O4  1  0.30815566  0.77356267  0.98035204  1
  F  F5  1  0.52242243  0.42682779  0.35224831  1
  P  P6  1  0.01140517  0.06638099  0.80656254  1
  O  O7  1  0.20490479  0.62904894  0.26783353  1
  O  O8  1  0.99430287  0.29363483  0.37027085  1
  O  O9  1  0.49729577  0.00983320  0.29685965  1
  O  O10  1  0.95060742  0.87573463  0.23421267  1
  Al  Al11  1  0.84475487  0.06404478  0.21331547  1
  F  F12  1  0.75462127  0.05947042  0.66882879  1
  Si  Si13  1  0.10841841  0.69163704  0.78061330  1
  O  O14  1  0.84125453  0.54347473  0.78944683  1
  O  O15  1  0.89368290  0.09107761  0.99355435  1
  O  O16  1  0.05293083  0.86813545  0.71421599  1
  O  O17  1  0.30048302  0.60793871  0.61794901  1
  O  O18  1  0.39154491  0.68327588  0.61022192  1
  O  O19  1  0.39329511  0.18095611  0.11200202  1
  Ti  Ti20  1  0.89669144  0.67783982  0.61344856  1
  O  O21  1  0.89040500  0.67481476  0.11399059  1
  Ti  Ti22  1  0.39306256  0.67335647  0.11339398  1
  Zn  Zn23  1  0.89565128  0.17302717  0.11136554  1
  Ti  Ti24  1  0.39452034  0.17888808  0.61226803  1
  O  O25  1  0.89329457  0.17964840  0.61530548  1
  Th  Th26  1  0.97407973  0.88618690  0.02177906  1
  O  O27  1  0.19564611  0.95313972  0.28922173  1
  O  O28  1  0.66847342  0.64894134  0.10910142  1
  Th  Th29  1  0.26254627  0.18518190  0.55955684  1
  O  O30  1  0.31901115  0.26537773  0.10391463  1
  P  P31  1  0.38563865  0.45392537  0.00916401  1
  O  O32  1  0.36122400  0.32821122  0.83270717  1
  O  O33  1  0.90049076  0.83338863  0.48885700  1
  O  O34  1  0.18247508  0.59240550  0.02333762  1
  O  O35  1  0.51382190  0.46927524  0.46577114  1
  O  O36  1  0.81682485  0.18569884  0.11884181  1
  Th  Th37  1  0.09146150  0.55620068  0.29183865  1
  Ca  Ca38  1  0.60982209  0.08686878  0.28449595  1
  O  O39  1  0.80496150  0.79155189  0.75069189  1
  O  O40  1  0.48434731  0.89309150  0.53998601  1
  O  O41  1  0.00305474  0.36186576  0.46566013  1
  P  P42  1  0.69132721  0.75444120  0.57144451  1
  O  O43  1  0.42885229  0.11405928  0.35678613  1
  O  O44  1  0.57032830  0.46878213  0.86376119  1
  Ce  Ce45  1  0.73653072  0.02882870  0.71700901  1
  Si  Si46  1  0.23885730  0.52397442  0.71580112  1
  P  P47  1  0.49203360  0.27919778  0.21297064  1
  O  O48  1  0.66274983  0.07035708  0.06779123  1
  O  O49  1  0.17464551  0.33399624  0.05959187  1
  O  O50  1  0.29564905  0.69538945  0.56038922  1
  O  O51  1  0.04341993  0.20424180  0.57224995  1
  O  O52  1  0.06764679  0.73311567  0.86358154  1
  Ce  Ce53  1  0.98863435  0.76751250  0.20719439  1
  O  O54  1  0.68927956  0.58507639  0.35016355  1
  Sc  Sc55  1  0.50589693  0.70629060  0.71524334  1
  O  O56  1  0.50607681  0.20541742  0.89809060  1
  O  O57  1  0.99795955  0.70285892  0.89724195  1
  Al  Al58  1  0.01071237  0.20332769  0.44810143  1
  Al  Al59  1  0.00363226  0.20206486  0.98540092  1
  O  O60  1  0.01091934  0.20852581  0.21815264  1
  O  O61  1  0.51020408  0.20673256  0.53616250  1
  O  O62  1  0.00840715  0.70105827  0.53809285  1
