# generated using pymatgen
data_Ca4LaCeYHoTh3TaTi4Al3Zn2Si2PO38F
_symmetry_space_group_name_H-M   'P 1'
_cell_length_a   4.49266720
_cell_length_b   7.58594275
_cell_length_c   7.73077059
_cell_angle_alpha   112.31594086
_cell_angle_beta   90.32151031
_cell_angle_gamma   103.39410400
_symmetry_Int_Tables_number   1
_chemical_formula_structural   Ca4LaCeYHoTh3TaTi4Al3Zn2Si2PO38F
_chemical_formula_sum
'Ca4 La1 Ce1 Y1 Ho1 Th3 Ta1 Ti4 Al3 Zn2 Si2 P1 O38 F1'
_cell_volume   235.82526682
_cell_formula_units_Z   1
loop_
 _symmetry_equiv_pos_site_id
 _symmetry_equiv_pos_as_xyz
  1  'x, y, z'
loop_
 _atom_site_type_symbol
 _atom_site_label
 _atom_site_symmetry_multiplicity
 _atom_site_fract_x
 _atom_site_fract_y
 _atom_site_fract_z
 _atom_site_occupancy
  Ca  Ca0  1  0.61636674  0.46357775  0.43899387  1
  O  O1  1  0.92567450  0.14638318  0.89926624  1
  O  O2  1  0.22104248  0.19527003  0.50075376  1
  Si  Si3  1  0.22807738  0.34411189  0.07772901  1
  Ho  Ho4  1  0.49403858  0.97972602  0.01082367  1
  P  P5  1  0.94615263  0.22119822  0.50797164  1
  Si  Si6  1  0.91410786  0.90862966  0.71850419  1
  O  O7  1  0.48184544  0.47846109  0.98326755  1
  O  O8  1  0.75326490  0.80592787  0.49687558  1
  Al  Al9  1  0.81865376  0.59496528  0.89511746  1
  Ca  Ca10  1  0.27823663  0.84871060  0.38897163  1
  O  O11  1  0.90161997  0.42018932  0.65943122  1
  O  O12  1  0.24427670  0.91468441  0.72348320  1
  O  O13  1  0.13179918  0.75903583  0.06527868  1
  O  O14  1  0.38869908  0.23966873  0.13539872  1
  O  O15  1  0.70695633  0.75238520  0.81084597  1
  O  O16  1  0.71988755  0.10149094  0.32319298  1
  O  O17  1  0.10884248  0.49119097  0.26959127  1
  O  O18  1  0.35725567  0.15320560  0.95056999  1
  Ti  Ti19  1  0.60746586  0.40694782  0.21264771  1
  Ti  Ti20  1  0.59699190  0.90357357  0.70944673  1
  O  O21  1  0.85031503  0.16144703  0.45121121  1
  O  O22  1  0.84793669  0.64889276  0.95602185  1
  O  O23  1  0.35886106  0.65106410  0.45128495  1
  Zn  Zn24  1  0.10053960  0.40318537  0.70887488  1
  Zn  Zn25  1  0.10192785  0.90479618  0.21113014  1
  Ca  Ca26  1  0.59550440  0.77850366  0.06642108  1
  O  O27  1  0.44787335  0.77391499  0.26028675  1
  Th  Th28  1  0.10060112  0.42424750  0.13143936  1
  O  O29  1  0.77289867  0.06403698  0.99553430  1
  O  O30  1  0.23972483  0.34078386  0.91369224  1
  Ta  Ta31  1  0.95925045  0.39100182  0.72768265  1
  O  O32  1  0.12294916  0.13556066  0.59285820  1
  Th  Th33  1  0.44979355  0.05096999  0.78976840  1
  Th  Th34  1  0.33575189  0.11978345  0.40851277  1
  O  O35  1  0.41752297  0.24922413  0.22371855  1
  Ca  Ca36  1  0.75678086  0.68563801  0.42195511  1
  O  O37  1  0.22341037  0.69925964  0.80081946  1
  O  O38  1  0.70224088  0.47831178  0.58660829  1
  F  F39  1  0.08344416  0.43250448  0.38691089  1
  O  O40  1  0.95604479  0.77786148  0.24843717  1
  O  O41  1  0.79526299  0.46354616  0.89737731  1
  O  O42  1  0.64953941  0.03536343  0.61199051  1
  Ti  Ti43  1  0.46553886  0.83630484  0.84656060  1
  Ti  Ti44  1  0.70837152  0.59369171  0.33920413  1
  O  O45  1  0.77127755  0.34593162  0.47161162  1
  O  O46  1  0.54613632  0.23763062  0.01927052  1
  O  O47  1  0.59392607  0.88585919  0.59266275  1
  La  La48  1  0.21676329  0.08164059  0.34782287  1
  Ce  Ce49  1  0.95908928  0.32747003  0.84598434  1
  O  O50  1  0.01339067  0.84987867  0.93770897  1
  O  O51  1  0.08286415  0.90082496  0.59500134  1
  O  O52  1  0.39981183  0.47050577  0.72714800  1
  O  O53  1  0.15973742  0.51372921  0.25436610  1
  O  O54  1  0.62604475  0.81907916  0.16122143  1
  Al  Al55  1  0.79613304  0.03373224  0.84585810  1
  O  O56  1  0.79038769  0.02916543  0.62035710  1
  Al  Al57  1  0.79682624  0.03080506  0.39372593  1
  O  O58  1  0.80791581  0.53338969  0.92964029  1
  O  O59  1  0.79807013  0.52924758  0.31246024  1
  Y  Y60  1  0.29069826  0.53305954  0.12157162  1
  O  O61  1  0.29224488  0.03632067  0.31555626  1
  O  O62  1  0.29384971  0.03042343  0.93099880  1
