# generated using pymatgen
data_Cs3K2RbSrCaDy5Tm2Sc3UP2S6(O6F5)3
_symmetry_space_group_name_H-M   'P 1'
_cell_length_a   6.07587099
_cell_length_b   5.94029474
_cell_length_c   6.20144558
_cell_angle_alpha   84.00587463
_cell_angle_beta   70.00710297
_cell_angle_gamma   71.27500916
_symmetry_Int_Tables_number   1
_chemical_formula_structural   Cs3K2RbSrCaDy5Tm2Sc3UP2S6(O6F5)3
_chemical_formula_sum
'Cs3 Rb1 K2 Sr1 Ca1 Dy5 Tm2 Sc3 U1 P2 S6 O18 F15'
_cell_volume   199.19999499
_cell_formula_units_Z   1
loop_
 _symmetry_equiv_pos_site_id
 _symmetry_equiv_pos_as_xyz
  1  'x, y, z'
loop_
 _atom_site_type_symbol
 _atom_site_label
 _atom_site_symmetry_multiplicity
 _atom_site_fract_x
 _atom_site_fract_y
 _atom_site_fract_z
 _atom_site_occupancy
  P  P0  1  0.85485846  0.46848181  0.58001041  1
  Cs  Cs1  1  0.35132930  0.21680665  0.92561710  1
  O  O2  1  0.63202000  0.07766713  0.24217990  1
  Cs  Cs3  1  0.35148430  0.71931571  0.42776757  1
  O  O4  1  0.07261416  0.85651517  0.06818751  1
  O  O5  1  0.63284791  0.58442330  0.78857851  1
  O  O6  1  0.85269481  0.22206140  0.42763826  1
  O  O7  1  0.07219992  0.36043903  0.61249471  1
  O  O8  1  0.85476846  0.71782547  0.43124813  1
  P  P9  1  0.85710877  0.97143400  0.27292022  1
  F  F10  1  0.32980278  0.01849426  0.49976459  1
  F  F11  1  0.45017162  0.02026179  0.97897416  1
  Ca  Ca12  1  0.44922775  0.25591776  0.14689140  1
  F  F13  1  0.70579070  0.42238915  0.79970336  1
  F  F14  1  0.81615204  0.06161944  0.17398402  1
  Rb  Rb15  1  0.64768618  0.63621616  0.33033580  1
  F  F16  1  0.26514933  0.46399319  0.42155692  1
  Cs  Cs17  1  0.89508677  0.85115522  0.62880504  1
  F  F18  1  0.10918578  0.46036586  0.00596532  1
  Sr  Sr19  1  0.10794291  0.21460877  0.81592315  1
  O  O20  1  0.06075605  0.96435010  0.99445105  1
  O  O21  1  0.73040462  0.78235102  0.64374185  1
  O  O22  1  0.37121722  0.12123820  0.30795008  1
  Dy  Dy23  1  0.29341370  0.82237327  0.48867926  1
  O  O24  1  0.71058303  0.28288504  0.64719623  1
  O  O25  1  0.86716783  0.35015619  0.31382799  1
  Dy  Dy26  1  0.64764661  0.98703945  0.81287169  1
  Dy  Dy27  1  0.63535404  0.49366555  0.81880838  1
  O  O28  1  0.54800826  0.70480329  0.98742276  1
  O  O29  1  0.86716688  0.88576025  0.31570446  1
  Dy  Dy30  1  0.96659607  0.66112453  0.15111727  1
  O  O31  1  0.36672959  0.61577743  0.32183284  1
  O  O32  1  0.20558921  0.53155804  0.65556467  1
  U  U33  1  0.96131361  0.16074507  0.15183727  1
  Dy  Dy34  1  0.29013699  0.32732111  0.49500877  1
  O  O35  1  0.21307991  0.02956295  0.65478975  1
  O  O36  1  0.54900640  0.20157912  0.99770588  1
  O  O37  1  0.04870431  0.43697494  0.99281245  1
  F  F38  1  0.99751234  0.23974012  0.90609270  1
  F  F39  1  0.99299896  0.07399235  0.57094437  1
  F  F40  1  0.99858618  0.90781879  0.23699518  1
  F  F41  1  0.49776897  0.07126153  0.06810899  1
  Sc  Sc42  1  0.99561375  0.40935814  0.73871756  1
  F  F43  1  0.99343270  0.57544827  0.57396984  1
  Sc  Sc44  1  0.99175769  0.74026012  0.40506181  1
  F  F45  1  0.00248841  0.40312213  0.24027726  1
  F  F46  1  0.49334595  0.40522054  0.73802912  1
  F  F47  1  0.49531347  0.74427509  0.40577751  1
  F  F48  1  0.99864370  0.73934299  0.90700543  1
  Sc  Sc49  1  0.99408185  0.07268187  0.07027236  1
  K  K50  1  0.45787197  0.05321891  0.30218610  1
  Tm  Tm51  1  0.95625043  0.05143389  0.80332607  1
  S  S52  1  0.95917225  0.87025899  0.12677312  1
  Tm  Tm53  1  0.95493019  0.55453169  0.30974114  1
  S  S54  1  0.45381868  0.55372667  0.31289503  1
  S  S55  1  0.95254439  0.38082603  0.97677696  1
  S  S56  1  0.45495790  0.05821449  0.80555439  1
  K  K57  1  0.45781070  0.54680377  0.80744922  1
  S  S58  1  0.96155983  0.22726838  0.48336345  1
  S  S59  1  0.95953894  0.72497475  0.62898886  1
