# generated using pymatgen
data_Ca4La2CeEuYThU2TiAl5Si4O37F4
_symmetry_space_group_name_H-M   'P 1'
_cell_length_a   4.49266720
_cell_length_b   7.58594275
_cell_length_c   7.73077059
_cell_angle_alpha   112.31594086
_cell_angle_beta   90.32151031
_cell_angle_gamma   103.39410400
_symmetry_Int_Tables_number   1
_chemical_formula_structural   Ca4La2CeEuYThU2TiAl5Si4O37F4
_chemical_formula_sum
'Ca4 La2 Ce1 Eu1 Y1 Th1 U2 Ti1 Al5 Si4 O37 F4'
_cell_volume   235.82526682
_cell_formula_units_Z   1
loop_
 _symmetry_equiv_pos_site_id
 _symmetry_equiv_pos_as_xyz
  1  'x, y, z'
loop_
 _atom_site_type_symbol
 _atom_site_label
 _atom_site_symmetry_multiplicity
 _atom_site_fract_x
 _atom_site_fract_y
 _atom_site_fract_z
 _atom_site_occupancy
  F  F0  1  0.25291699  0.31181547  0.80770832  1
  O  O1  1  0.28521100  0.81786549  0.62990546  1
  O  O2  1  0.70066983  0.92188704  0.44152519  1
  Si  Si3  1  0.46702114  0.41675016  0.67447972  1
  Ca  Ca4  1  0.88172877  0.75255287  0.12659006  1
  O  O5  1  0.27089649  0.65617192  0.25458622  1
  F  F6  1  0.75280881  0.04560691  0.88358176  1
  F  F7  1  0.71309805  0.43779212  0.12656489  1
  Si  Si8  1  0.44610062  0.86131263  0.83324921  1
  Ca  Ca9  1  0.17392127  0.31569824  0.12861562  1
  O  O10  1  0.21293356  0.00565121  0.41704077  1
  F  F11  1  0.84239274  0.11880410  0.24343008  1
  Al  Al12  1  0.94244599  0.16433513  0.47968197  1
  O  O13  1  0.72365516  0.32183325  0.63005292  1
  O  O14  1  0.57450837  0.66584057  0.82952493  1
  O  O15  1  0.23459290  0.91849524  0.99315083  1
  O  O16  1  0.25919142  0.38158473  0.49416482  1
  Si  Si17  1  0.37015474  0.85429054  0.44081378  1
  O  O18  1  0.47483039  0.40884614  0.07405113  1
  Al  Al19  1  0.63119012  0.41961125  0.75203007  1
  Al  Al20  1  0.16606541  0.41397673  0.30241981  1
  O  O21  1  0.13768806  0.90389109  0.24104929  1
  O  O22  1  0.67665541  0.90699351  0.78843135  1
  O  O23  1  0.85216773  0.40345904  0.44004297  1
  O  O24  1  0.38540262  0.40440437  0.54511791  1
  Ce  Ce25  1  0.65099871  0.91150087  0.27301633  1
  O  O26  1  0.63428521  0.50427741  0.59058541  1
  O  O27  1  0.95419371  0.81353748  0.97285974  1
  O  O28  1  0.48361599  0.72784883  0.35197014  1
  Ca  Ca29  1  0.83548146  0.14600967  0.47562373  1
  O  O30  1  0.39733779  0.48393157  0.01609817  1
  Eu  Eu31  1  0.71017742  0.44796896  0.22599104  1
  Ca  Ca32  1  0.07267430  0.06713455  0.85919958  1
  O  O33  1  0.06194583  0.47039506  0.42856756  1
  O  O34  1  0.01331193  0.85619444  0.30671197  1
  O  O35  1  0.48980549  0.07654158  0.21936411  1
  Th  Th36  1  0.59053975  0.46468702  0.81885469  1
  O  O37  1  0.22354744  0.11601423  0.66045547  1
  O  O38  1  0.90830499  0.40267304  0.03080188  1
  U  U39  1  0.20927046  0.75889379  0.15075608  1
  U  U40  1  0.37141967  0.75990677  0.56029701  1
  O  O41  1  0.70775586  0.07825199  0.68125463  1
  O  O42  1  0.34931576  0.76295567  0.78510988  1
  La  La43  1  0.22513625  0.38641959  0.91308618  1
  Si  Si44  1  0.70844352  0.88455915  0.90979272  1
  O  O45  1  0.28853688  0.35414401  0.57275110  1
  O  O46  1  0.92514551  0.18996754  0.05680326  1
  La  La47  1  0.95671666  0.62353390  0.40914378  1
  O  O48  1  0.39718932  0.94815838  0.75968546  1
  Ti  Ti49  1  0.46116877  0.12374851  0.40822268  1
  O  O50  1  0.64289999  0.73542178  0.06888443  1
  O  O51  1  0.80271798  0.07429886  0.57145244  1
  O  O52  1  0.24296901  0.79722750  0.26032457  1
  O  O53  1  0.52412045  0.30502620  0.25474721  1
  O  O54  1  0.86570460  0.66266352  0.75992274  1
  O  O55  1  0.39503869  0.81907791  0.92420554  1
  Al  Al56  1  0.38944972  0.31082669  0.83876920  1
  O  O57  1  0.39886412  0.31792334  0.61940199  1
  O  O58  1  0.89023775  0.31787777  0.92668521  1
  O  O59  1  0.89066309  0.30786133  0.31031111  1
  O  O60  1  0.40639973  0.81573707  0.31461850  1
  Al  Al61  1  0.39842391  0.31131762  0.39840680  1
  Y  Y62  1  0.88624644  0.81455326  0.11950050  1
