# generated using pymatgen
data_LaYbPrHo2LuScU4PaTiBeAl2TlCdCuPS4Cl2(OF)18
_symmetry_space_group_name_H-M   'P 1'
_cell_length_a   5.06651592
_cell_length_b   6.96818829
_cell_length_c   9.07620811
_cell_angle_alpha   103.01397705
_cell_angle_beta   93.83329773
_cell_angle_gamma   96.98336029
_symmetry_Int_Tables_number   1
_chemical_formula_structural
LaYbPrHo2LuScU4PaTiBeAl2TlCdCuPS4Cl2(OF)18
_chemical_formula_sum
;
La1 Yb1 Pr1 Ho2 Lu1 Sc1 U4 Pa1 Ti1 Be1 Al2 Tl1 Cd1 Cu1 P1 S4 Cl2 O18
F18
;
_cell_volume   308.40955817
_cell_formula_units_Z   1
loop_
 _symmetry_equiv_pos_site_id
 _symmetry_equiv_pos_as_xyz
  1  'x, y, z'
loop_
 _atom_site_type_symbol
 _atom_site_label
 _atom_site_symmetry_multiplicity
 _atom_site_fract_x
 _atom_site_fract_y
 _atom_site_fract_z
 _atom_site_occupancy
  U  U0  1  0.41433543  0.08309700  0.10425872  1
  U  U1  1  0.95017344  0.06692792  0.38649940  1
  S  S2  1  0.92452651  0.33854723  0.20129541  1
  La  La3  1  0.41458419  0.63463801  0.35600859  1
  O  O4  1  0.67097825  0.86802256  0.18747361  1
  O  O5  1  0.80256540  0.78667051  0.48496675  1
  S  S6  1  0.35905832  0.45332575  0.00085764  1
  S  S7  1  0.59510791  0.04095819  0.82178104  1
  O  O8  1  0.16020291  0.85724193  0.23666102  1
  O  O9  1  0.10713286  0.88395685  0.94751316  1
  O  O10  1  0.07297239  0.14414926  0.63662291  1
  U  U11  1  0.00097096  0.83304602  0.70484573  1
  S  S12  1  0.49429846  0.24022596  0.42349499  1
  U  U13  1  0.88957626  0.64503956  0.03795289  1
  O  O14  1  0.25980702  0.62301940  0.61144269  1
  Lu  Lu15  1  0.42749396  0.36449885  0.70940787  1
  O  O16  1  0.78272611  0.57111579  0.78456455  1
  F  F17  1  0.44997859  0.76426530  0.32867253  1
  F  F18  1  0.57926381  0.26922652  0.98231912  1
  F  F19  1  0.48129427  0.24637818  0.53489918  1
  Al  Al20  1  0.45289654  0.50295657  0.42668888  1
  F  F21  1  0.19877522  0.54279464  0.52514213  1
  Cd  Cd22  1  0.90389276  0.55952603  0.65727270  1
  F  F23  1  0.96564311  0.25149029  0.78750497  1
  Tl  Tl24  1  0.99490857  0.71995729  0.16736360  1
  Al  Al25  1  0.28792995  0.28239384  0.88957620  1
  F  F26  1  0.33715999  0.60410583  0.98654342  1
  F  F27  1  0.77066594  0.82597589  0.53406352  1
  F  F28  1  0.00023842  0.01766157  0.97248060  1
  F  F29  1  0.72545516  0.45266843  0.34804320  1
  F  F30  1  0.28260127  0.96458107  0.78457332  1
  F  F31  1  0.56233060  0.55804169  0.79345691  1
  F  F32  1  0.14242181  0.19120149  0.33076188  1
  Cu  Cu33  1  0.61713564  0.94324344  0.88539118  1
  O  O34  1  0.37291473  0.60325128  0.63538378  1
  O  O35  1  0.37614217  0.10857330  0.13148123  1
  Pa  Pa36  1  0.88006198  0.60900372  0.12812276  1
  O  O37  1  0.86742496  0.11449886  0.62572801  1
  F  F38  1  0.05491255  0.68264693  0.16767094  1
  O  O39  1  0.34029406  0.17960721  0.87228042  1
  Ti  Ti40  1  0.35709918  0.69251716  0.33016145  1
  Sc  Sc41  1  0.03699194  0.19155081  0.70447272  1
  F  F42  1  0.21231928  0.39212528  0.46631476  1
  O  O43  1  0.57595617  0.47378495  0.10743417  1
  O  O44  1  0.79492331  0.01684958  0.94170946  1
  P  P45  1  0.53387618  0.17255516  0.02761645  1
  F  F46  1  0.73973942  0.17428881  0.55172729  1
  Be  Be47  1  0.81715667  0.69560838  0.02355852  1
  O  O48  1  0.45071328  0.99881172  0.20990759  1
  F  F49  1  0.16753477  0.87511975  0.54433209  1
  F  F50  1  0.62637788  0.67440486  0.47406265  1
  F  F51  1  0.91842949  0.53423625  0.82418364  1
  O  O52  1  0.80745035  0.77001888  0.18506947  1
  Pr  Pr53  1  0.98462099  0.92586380  0.51221001  1
  O  O54  1  0.44324440  0.72200173  0.45023787  1
  Ho  Ho55  1  0.77285492  0.06170641  0.11821733  1
  O  O56  1  0.31215084  0.25438792  0.18645698  1
  Yb  Yb57  1  0.27377671  0.55932796  0.11332758  1
  Cl  Cl58  1  0.63106596  0.24571957  0.81706804  1
  Ho  Ho59  1  0.47771960  0.42214942  0.51005793  1
  Cl  Cl60  1  0.12157687  0.73627645  0.81665981  1
  O  O61  1  0.94328243  0.23316760  0.44510648  1
