# generated using pymatgen
data_Ba2Ce4EuYScUTi3Al2ZnSi2P5O37F3
_symmetry_space_group_name_H-M   'P 1'
_cell_length_a   4.49266720
_cell_length_b   7.58594275
_cell_length_c   7.73077059
_cell_angle_alpha   112.31594086
_cell_angle_beta   90.32151031
_cell_angle_gamma   103.39410400
_symmetry_Int_Tables_number   1
_chemical_formula_structural   Ba2Ce4EuYScUTi3Al2ZnSi2P5O37F3
_chemical_formula_sum
'Ba2 Ce4 Eu1 Y1 Sc1 U1 Ti3 Al2 Zn1 Si2 P5 O37 F3'
_cell_volume   235.82526682
_cell_formula_units_Z   1
loop_
 _symmetry_equiv_pos_site_id
 _symmetry_equiv_pos_as_xyz
  1  'x, y, z'
loop_
 _atom_site_type_symbol
 _atom_site_label
 _atom_site_symmetry_multiplicity
 _atom_site_fract_x
 _atom_site_fract_y
 _atom_site_fract_z
 _atom_site_occupancy
  Ce  Ce0  1  0.17283627  0.51109886  0.91278255  1
  O  O1  1  0.12332007  0.83649325  0.02679703  1
  O  O2  1  0.42475352  0.63359094  0.70256042  1
  O  O3  1  0.51942098  0.45054436  0.36075589  1
  O  O4  1  0.59639847  0.67521209  0.14452180  1
  P  P5  1  0.66268724  0.56687337  0.57715970  1
  O  O6  1  0.92607898  0.10127857  0.36315313  1
  Al  Al7  1  0.84513181  0.90387803  0.14371414  1
  O  O8  1  0.43254116  0.30738589  0.00010812  1
  P  P9  1  0.79877782  0.15647332  0.55770141  1
  O  O10  1  0.93414921  0.46920854  0.14856304  1
  O  O11  1  0.89799583  0.72481787  0.58397710  1
  Ce  Ce12  1  0.28144649  0.96656299  0.79744768  1
  O  O13  1  0.01990771  0.17563853  0.71485305  1
  O  O14  1  0.51722759  0.02376303  0.55403787  1
  P  P15  1  0.63525957  0.47204843  0.16498102  1
  O  O16  1  0.77743870  0.40398267  0.64064586  1
  F  F17  1  0.70531189  0.00393489  0.99688941  1
  Ti  Ti18  1  0.31652907  0.69043165  0.50992048  1
  O  O19  1  0.81828415  0.20272020  0.00933907  1
  Ti  Ti20  1  0.32384688  0.19503067  0.00716550  1
  O  O21  1  0.32019880  0.69367778  0.01055346  1
  Ti  Ti22  1  0.81942976  0.19496690  0.50688207  1
  O  O23  1  0.32567272  0.19261095  0.51980335  1
  O  O24  1  0.82352811  0.69456464  0.50928444  1
  Zn  Zn25  1  0.81658709  0.69016063  0.00836633  1
  O  O26  1  0.21264932  0.63646162  0.38797498  1
  U  U27  1  0.62522334  0.03899848  0.85907316  1
  P  P28  1  0.36141050  0.92879027  0.47217059  1
  O  O29  1  0.36614120  0.65534222  0.85160178  1
  F  F30  1  0.65615559  0.38399604  0.32064188  1
  O  O31  1  0.64217579  0.97796470  0.45373580  1
  O  O32  1  0.85007548  0.09514872  0.06333132  1
  Ba  Ba33  1  0.79253125  0.71924043  0.19523127  1
  O  O34  1  0.37027049  0.01263371  0.65292877  1
  O  O35  1  0.26192719  0.75102425  0.10385042  1
  O  O36  1  0.94425565  0.37890017  0.85873961  1
  F  F37  1  0.79791462  0.78956312  0.72503299  1
  P  P38  1  0.23539518  0.52650976  0.94642401  1
  Eu  Eu39  1  0.25468901  0.21658246  0.19741373  1
  Ba  Ba40  1  0.97727716  0.43405420  0.57441878  1
  O  O41  1  0.38181555  0.31630006  0.98543692  1
  O  O42  1  0.20104083  0.08743688  0.40599561  1
  O  O43  1  0.92661601  0.39929172  0.95411801  1
  Si  Si44  1  0.14087260  0.22469997  0.09946613  1
  Ce  Ce45  1  0.88441241  0.46539044  0.60056478  1
  Ce  Ce46  1  0.64245075  0.72406632  0.10568345  1
  O  O47  1  0.59596860  0.79254639  0.75233865  1
  O  O48  1  0.32758430  0.29062951  0.75710642  1
  O  O49  1  0.46486232  0.43901005  0.25369465  1
  O  O50  1  0.56001681  0.03802769  0.45083490  1
  Si  Si51  1  0.38668376  0.95966744  0.60031205  1
  O  O52  1  0.19158974  0.90107560  0.94722909  1
  O  O53  1  0.06018061  0.75224245  0.44708028  1
  O  O54  1  0.96697545  0.15778707  0.26287287  1
  Al  Al55  1  0.13908590  0.31245321  0.30453110  1
  O  O56  1  0.63854051  0.31209040  0.24336839  1
  O  O57  1  0.13265377  0.81165856  0.25280443  1
  O  O58  1  0.13489582  0.30944335  0.94620764  1
  O  O59  1  0.14093632  0.31608021  0.54876697  1
  O  O60  1  0.63658124  0.80665100  0.75776702  1
  Y  Y61  1  0.63315105  0.81069940  0.06016710  1
  Sc  Sc62  1  0.13710710  0.80616325  0.70296478  1
