# generated using pymatgen
data_NaLi2Ca2SmEu2Mg2Ti4In2Ga2Co2Cu3Ag2Hg4Sb6Ru4Pb
_symmetry_space_group_name_H-M   'P 1'
_cell_length_a   4.53447056
_cell_length_b   6.23771715
_cell_length_c   6.96270227
_cell_angle_alpha   84.41940308
_cell_angle_beta   78.29293823
_cell_angle_gamma   77.43684387
_symmetry_Int_Tables_number   1
_chemical_formula_structural
NaLi2Ca2SmEu2Mg2Ti4In2Ga2Co2Cu3Ag2Hg4Sb6Ru4Pb
_chemical_formula_sum
'Na1 Li2 Ca2 Sm1 Eu2 Mg2 Ti4 In2 Ga2 Co2 Cu3 Ag2 Hg4 Sb6 Ru4 Pb1'
_cell_volume   187.93343918
_cell_formula_units_Z   1
loop_
 _symmetry_equiv_pos_site_id
 _symmetry_equiv_pos_as_xyz
  1  'x, y, z'
loop_
 _atom_site_type_symbol
 _atom_site_label
 _atom_site_symmetry_multiplicity
 _atom_site_fract_x
 _atom_site_fract_y
 _atom_site_fract_z
 _atom_site_occupancy
  Mg  Mg0  1  0.45169938  0.65203202  0.70034945  1
  Ag  Ag1  1  0.09196895  0.38897532  0.80308104  1
  Ca  Ca2  1  0.74498272  0.07479262  0.60490000  1
  Sm  Sm3  1  0.62384462  0.30261439  0.11493191  1
  Mg  Mg4  1  0.88779008  0.76296800  0.03466623  1
  Pb  Pb5  1  0.03806121  0.49864811  0.41615766  1
  Ag  Ag6  1  0.31452024  0.88348103  0.30491957  1
  Cu  Cu7  1  0.27126339  0.00168645  0.93847460  1
  Sb  Sb8  1  0.44679239  0.28353715  0.56584585  1
  Li  Li9  1  0.71881801  0.25406948  0.10250388  1
  Sb  Sb10  1  0.23486017  0.76145822  0.13042018  1
  Li  Li11  1  0.95264852  0.79494733  0.58574933  1
  Ru  Ru12  1  0.12164141  0.39233264  0.49627948  1
  Ti  Ti13  1  0.12056787  0.39182016  0.24271870  1
  Ga  Ga14  1  0.45093504  0.06097416  0.58207387  1
  Ga  Ga15  1  0.45054621  0.05310642  0.07992847  1
  Ti  Ti16  1  0.11448071  0.39027405  0.74229902  1
  Co  Co17  1  0.43924883  0.04644062  0.83267361  1
  Co  Co18  1  0.77749848  0.72407210  0.66656721  1
  Ti  Ti19  1  0.78285527  0.72719848  0.42059290  1
  Ru  Ru20  1  0.78326845  0.72278768  0.16778392  1
  Ru  Ru21  1  0.11152686  0.39363670  0.99096167  1
  Ti  Ti22  1  0.77490759  0.72043878  0.91188037  1
  Ru  Ru23  1  0.44232666  0.05435580  0.32905662  1
  Na  Na24  1  0.57103980  0.49680838  0.17019378  1
  Sb  Sb25  1  0.07938576  0.69572383  0.07438375  1
  Sb  Sb26  1  0.05840988  0.27029666  0.25164992  1
  Ca  Ca27  1  0.06401068  0.99009293  0.66978729  1
  Sb  Sb28  1  0.57244527  0.91107821  0.89931691  1
  Cu  Cu29  1  0.31998685  0.48915035  0.66864455  1
  Sb  Sb30  1  0.55017948  0.07121345  0.44170225  1
  Cu  Cu31  1  0.81403816  0.48602921  0.65967894  1
  Hg  Hg32  1  0.83595711  0.92779487  0.68152326  1
  Eu  Eu33  1  0.83655095  0.43931168  0.16867271  1
  Hg  Hg34  1  0.82173556  0.92855352  0.15051642  1
  In  In35  1  0.83618808  0.43494484  0.66645861  1
  Eu  Eu36  1  0.33013821  0.09327617  0.50381386  1
  In  In37  1  0.33255854  0.08205017  0.99619907  1
  Hg  Hg38  1  0.34064728  0.59579390  0.98491609  1
  Hg  Hg39  1  0.33814013  0.59357661  0.50454664  1
