# generated using pymatgen
data_YbCePrHo2Lu2U3PaTi2Al3TlP2Cl2O26F15
_symmetry_space_group_name_H-M   'P 1'
_cell_length_a   5.06651592
_cell_length_b   6.96818829
_cell_length_c   9.07620811
_cell_angle_alpha   103.01397705
_cell_angle_beta   93.83329773
_cell_angle_gamma   96.98336029
_symmetry_Int_Tables_number   1
_chemical_formula_structural   YbCePrHo2Lu2U3PaTi2Al3TlP2Cl2O26F15
_chemical_formula_sum
'Yb1 Ce1 Pr1 Ho2 Lu2 U3 Pa1 Ti2 Al3 Tl1 P2 Cl2 O26 F15'
_cell_volume   308.40955817
_cell_formula_units_Z   1
loop_
 _symmetry_equiv_pos_site_id
 _symmetry_equiv_pos_as_xyz
  1  'x, y, z'
loop_
 _atom_site_type_symbol
 _atom_site_label
 _atom_site_symmetry_multiplicity
 _atom_site_fract_x
 _atom_site_fract_y
 _atom_site_fract_z
 _atom_site_occupancy
  Lu  Lu0  1  0.57895696  0.56800514  0.21038605  1
  U  U1  1  0.02341019  0.10973550  0.21269596  1
  Pr  Pr2  1  0.52831107  0.38803494  0.55958110  1
  O  O3  1  0.85438275  0.11337893  0.44379130  1
  O  O4  1  0.32784101  0.47949463  0.99350476  1
  O  O5  1  0.31805491  0.11439109  0.67098248  1
  U  U6  1  0.04576821  0.67427945  0.90449303  1
  O  O7  1  0.84670311  0.77365130  0.12132343  1
  O  O8  1  0.77463019  0.27437842  0.11439745  1
  O  O9  1  0.74836183  0.64641118  0.44142553  1
  O  O10  1  0.26019132  0.98235959  0.00843906  1
  O  O11  1  0.80601752  0.90683484  0.79137194  1
  O  O12  1  0.21742022  0.64945716  0.67931670  1
  O  O13  1  0.77238619  0.41923407  0.80265731  1
  O  O14  1  0.30852407  0.35409135  0.31290832  1
  Lu  Lu15  1  0.53324407  0.17437986  0.89193469  1
  U  U16  1  0.00183892  0.89859784  0.57682598  1
  Al  Al17  1  0.28539941  0.89048940  0.86537558  1
  F  F18  1  0.06628921  0.03682196  0.18240495  1
  Al  Al19  1  0.86144209  0.05601189  0.63297123  1
  F  F20  1  0.69829583  0.49467689  0.19797194  1
  Al  Al21  1  0.69006753  0.70854288  0.09588584  1
  F  F22  1  0.03094941  0.42961082  0.36864224  1
  F  F23  1  0.58906198  0.03690419  0.75981754  1
  F  F24  1  0.09919406  0.03492205  0.49379376  1
  F  F25  1  0.14186664  0.46003264  0.74639392  1
  F  F26  1  0.40861702  0.31313252  0.97523308  1
  F  F27  1  0.58098489  0.89461398  0.98712289  1
  F  F28  1  0.50909740  0.87702143  0.23763037  1
  F  F29  1  0.57373869  0.66454720  0.52663082  1
  F  F30  1  0.68846965  0.19887769  0.53690541  1
  F  F31  1  0.02308365  0.90046209  0.74711323  1
  F  F32  1  0.98220956  0.68009126  0.97295845  1
  Tl  Tl33  1  0.45989400  0.27759811  0.36470950  1
  O  O34  1  0.24032533  0.64994979  0.90647584  1
  Pa  Pa35  1  0.73684841  0.15195036  0.89868855  1
  O  O36  1  0.23382340  0.14067006  0.39745784  1
  O  O37  1  0.73343432  0.65162855  0.40128767  1
  O  O38  1  0.67975456  0.36262888  0.79107279  1
  Ti  Ti39  1  0.35754660  0.13598925  0.29949027  1
  P  P40  1  0.85469812  0.45748392  0.28228411  1
  F  F41  1  0.17860584  0.64190143  0.81446153  1
  O  O42  1  0.06260309  0.27116969  0.23764084  1
  O  O43  1  0.32636267  0.16609246  0.60603005  1
  O  O44  1  0.40457410  0.10768720  0.00016212  1
  Ti  Ti45  1  0.84965354  0.62951994  0.78875971  1
  O  O46  1  0.81235933  0.64296055  0.09466197  1
  P  P47  1  0.52370960  0.13934503  0.78649461  1
  O  O48  1  0.89691287  0.58758301  0.48270428  1
  O  O49  1  0.70347279  0.92468572  0.73653477  1
  O  O50  1  0.63290101  0.30268195  0.31050640  1
  F  F51  1  0.35889110  0.80692017  0.33602208  1
  Cl  Cl52  1  0.01844313  0.01510077  0.39910007  1
  Ho  Ho53  1  0.36520219  0.70164853  0.09728357  1
  Cl  Cl54  1  0.51803297  0.52511698  0.39718115  1
  Yb  Yb55  1  0.87254971  0.20307858  0.10117055  1
  Ce  Ce56  1  0.67830634  0.33680356  0.70509762  1
  O  O57  1  0.33434519  0.99195671  0.02533704  1
  Ho  Ho58  1  0.17109172  0.83949268  0.70775545  1
  O  O59  1  0.69992715  0.03542775  0.76721692  1
  O  O60  1  0.20851156  0.54180485  0.77282214  1
  O  O61  1  0.82914317  0.51124394  0.02999672  1
