# generated using pymatgen
data_CaYb2CeHo2ErLuU3PaTi3Al3TlCl2O20F21
_symmetry_space_group_name_H-M   'P 1'
_cell_length_a   5.06651592
_cell_length_b   6.96818829
_cell_length_c   9.07620811
_cell_angle_alpha   103.01397705
_cell_angle_beta   93.83329773
_cell_angle_gamma   96.98336029
_symmetry_Int_Tables_number   1
_chemical_formula_structural   CaYb2CeHo2ErLuU3PaTi3Al3TlCl2O20F21
_chemical_formula_sum
'Ca1 Yb2 Ce1 Ho2 Er1 Lu1 U3 Pa1 Ti3 Al3 Tl1 Cl2 O20 F21'
_cell_volume   308.40955817
_cell_formula_units_Z   1
loop_
 _symmetry_equiv_pos_site_id
 _symmetry_equiv_pos_as_xyz
  1  'x, y, z'
loop_
 _atom_site_type_symbol
 _atom_site_label
 _atom_site_symmetry_multiplicity
 _atom_site_fract_x
 _atom_site_fract_y
 _atom_site_fract_z
 _atom_site_occupancy
  O  O0  1  0.31518865  0.40239155  0.70222747  1
  U  U1  1  0.05495235  0.20943341  0.80109870  1
  O  O2  1  0.76504290  0.26153424  0.22819886  1
  O  O3  1  0.26547632  0.24422880  0.01643423  1
  U  U4  1  0.03897338  0.00444489  0.12499942  1
  O  O5  1  0.77300912  0.46323484  0.91100228  1
  Lu  Lu6  1  0.54446983  0.50702685  0.13724172  1
  O  O7  1  0.83673900  0.96498471  0.90467542  1
  O  O8  1  0.78122848  0.60422844  0.57760894  1
  O  O9  1  0.32299897  0.54855686  0.36274084  1
  O  O10  1  0.34484297  0.75364059  0.04467028  1
  U  U11  1  0.04286726  0.77367926  0.48024392  1
  O  O12  1  0.84256184  0.78799003  0.26477793  1
  Ce  Ce13  1  0.55740428  0.29569671  0.46021587  1
  O  O14  1  0.85313720  0.10280341  0.58774334  1
  Er  Er15  1  0.54740608  0.70017016  0.80982888  1
  O  O16  1  0.28121719  0.90237778  0.69306439  1
  F  F17  1  0.15022424  0.85662585  0.58525860  1
  F  F18  1  0.06767113  0.69945848  0.80803782  1
  Al  Al19  1  0.44836062  0.01373896  0.48053700  1
  Tl  Tl20  1  0.27441278  0.60384965  0.98563540  1
  F  F21  1  0.70033801  0.98257017  0.60070419  1
  F  F22  1  0.63805532  0.80763328  0.16579264  1
  F  F23  1  0.21997397  0.01010607  0.12588295  1
  F  F24  1  0.99592334  0.35506758  0.13755715  1
  F  F25  1  0.64503944  0.82063055  0.84517640  1
  F  F26  1  0.15021339  0.01041072  0.36700475  1
  F  F27  1  0.73709160  0.19660319  0.36973953  1
  Al  Al28  1  0.87521100  0.82444072  0.70978886  1
  F  F29  1  0.13713381  0.21662444  0.81495750  1
  Al  Al30  1  0.01520536  0.16099696  0.25146258  1
  F  F31  1  0.70842695  0.45016819  0.97038901  1
  F  F32  1  0.59700453  0.42336756  0.60017323  1
  F  F33  1  0.32382947  0.58512515  0.36400422  1
  O  O34  1  0.50997019  0.85929799  0.90781081  1
  O  O35  1  0.01518115  0.35922861  0.90957677  1
  O  O36  1  0.51104844  0.36843687  0.40625280  1
  Pa  Pa37  1  0.01009231  0.86472356  0.41264153  1
  Ca  Ca38  1  0.59008157  0.91195583  0.30798396  1
  Ti  Ti39  1  0.34678176  0.16938189  0.75320178  1
  F  F40  1  0.81848025  0.69043225  0.07274748  1
  F  F41  1  0.87203163  0.19118987  0.24809851  1
  F  F42  1  0.36262113  0.14382088  0.06593034  1
  F  F43  1  0.31826565  0.64662063  0.23209067  1
  Ti  Ti44  1  0.09477680  0.41657895  0.18770631  1
  F  F45  1  0.29176793  0.23867299  0.44738591  1
  F  F46  1  0.09364415  0.92690581  0.75663328  1
  O  O47  1  0.58915496  0.91642439  0.68986809  1
  F  F48  1  0.90924442  0.60569817  0.45594969  1
  F  F49  1  0.59498584  0.41827190  0.75551629  1
  O  O50  1  0.09510075  0.41612148  0.86028570  1
  Ti  Ti51  1  0.84470737  0.67456752  0.75336868  1
  Cl  Cl52  1  0.82280129  0.51613599  0.36317804  1
  Ho  Ho53  1  0.47792238  0.50689858  0.66702116  1
  Yb  Yb54  1  0.17015702  0.52991426  0.05600844  1
  O  O55  1  0.14626639  0.15693209  0.99120843  1
  O  O56  1  0.64511341  0.66599923  0.98989761  1
  Ho  Ho57  1  0.66908401  0.02428788  0.05440643  1
  Yb  Yb58  1  0.97254407  0.00412691  0.65877306  1
  Cl  Cl59  1  0.32472754  0.01931232  0.35595173  1
  O  O60  1  0.50280005  0.86379319  0.73008323  1
  O  O61  1  0.99747545  0.37138930  0.72678560  1
