# generated using pymatgen
data_Ca3LaCe2EuYTh2ScUTi4AlZn2Si3PO37F3
_symmetry_space_group_name_H-M   'P 1'
_cell_length_a   4.49266720
_cell_length_b   7.58594275
_cell_length_c   7.73077059
_cell_angle_alpha   112.31594086
_cell_angle_beta   90.32151031
_cell_angle_gamma   103.39410400
_symmetry_Int_Tables_number   1
_chemical_formula_structural   Ca3LaCe2EuYTh2ScUTi4AlZn2Si3PO37F3
_chemical_formula_sum
'Ca3 La1 Ce2 Eu1 Y1 Th2 Sc1 U1 Ti4 Al1 Zn2 Si3 P1 O37 F3'
_cell_volume   235.82526682
_cell_formula_units_Z   1
loop_
 _symmetry_equiv_pos_site_id
 _symmetry_equiv_pos_as_xyz
  1  'x, y, z'
loop_
 _atom_site_type_symbol
 _atom_site_label
 _atom_site_symmetry_multiplicity
 _atom_site_fract_x
 _atom_site_fract_y
 _atom_site_fract_z
 _atom_site_occupancy
  O  O0  1  0.83629888  0.34092158  0.41277948  1
  O  O1  1  0.96330523  0.26881704  0.90124929  1
  Si  Si2  1  0.25844297  0.45344150  0.07153796  1
  Ca  Ca3  1  0.19856423  0.27786428  0.61345285  1
  F  F4  1  0.02320408  0.58929694  0.79018641  1
  Si  Si5  1  0.55168808  0.21668863  0.24847773  1
  Ca  Ca6  1  0.92239833  0.80970514  0.09004274  1
  F  F7  1  0.82796299  0.90269971  0.41136521  1
  Si  Si8  1  0.70447677  0.05970901  0.85531843  1
  O  O9  1  0.13696909  0.62596625  0.22087924  1
  O  O10  1  0.47684652  0.52908653  0.95097065  1
  O  O11  1  0.86884266  0.90522361  0.81190509  1
  Ce  Ce12  1  0.02408234  0.70554149  0.54468274  1
  F  F13  1  0.46049079  0.58193636  0.55743366  1
  O  O14  1  0.29252589  0.09886070  0.30972797  1
  O  O15  1  0.63030219  0.06133700  0.05852796  1
  O  O16  1  0.40857208  0.01600809  0.69054854  1
  O  O17  1  0.43368757  0.36649975  0.18643147  1
  O  O18  1  0.00921945  0.02516246  0.76981086  1
  Ti  Ti19  1  0.26164067  0.26617923  0.51609558  1
  O  O20  1  0.51434392  0.02543217  0.27266839  1
  Zn  Zn21  1  0.76448017  0.76417953  0.51811957  1
  O  O22  1  0.01587121  0.49886292  0.27179968  1
  Ti  Ti23  1  0.76339549  0.26211858  0.01842517  1
  O  O24  1  0.50501150  0.50319248  0.78169662  1
  Zn  Zn25  1  0.26083511  0.75966597  0.01834438  1
  Eu  Eu26  1  0.32371539  0.68043488  0.47051528  1
  O  O27  1  0.65342188  0.88658637  0.22930649  1
  O  O28  1  0.07646626  0.10236174  0.90857881  1
  O  O29  1  0.60198236  0.46575364  0.58741134  1
  Ca  Ca30  1  0.44303954  0.50304174  0.06287415  1
  U  U31  1  0.59662312  0.18820599  0.38522050  1
  Th  Th32  1  0.94747907  0.04248787  0.13360457  1
  O  O33  1  0.18183240  0.64981687  0.84974504  1
  O  O34  1  0.56530201  0.11773784  0.97417235  1
  P  P35  1  0.27179655  0.93898427  0.85165876  1
  Th  Th36  1  0.75440556  0.30968907  0.78671640  1
  O  O37  1  0.91953278  0.37682441  0.35645068  1
  O  O38  1  0.35174793  0.35253960  0.24652725  1
  O  O39  1  0.76224613  0.62569153  0.97595215  1
  O  O40  1  0.22863191  0.92833954  0.31413049  1
  O  O41  1  0.28967044  0.95524484  0.69664735  1
  O  O42  1  0.72162217  0.03418990  0.56073332  1
  O  O43  1  0.34660536  0.73826993  0.85312051  1
  O  O44  1  0.50033861  0.25636131  0.15430945  1
  O  O45  1  0.53516364  0.17372218  0.72115195  1
  La  La46  1  0.16051759  0.74989736  0.47267866  1
  O  O47  1  0.03293229  0.18542179  0.73212719  1
  Ti  Ti48  1  0.65039510  0.22102733  0.46625477  1
  O  O49  1  0.57005268  0.82242721  0.29617429  1
  Ce  Ce50  1  0.90605253  0.98937917  0.97467875  1
  O  O51  1  0.11390419  0.21160938  0.37397847  1
  Ti  Ti52  1  0.41631660  0.48762512  0.98366916  1
  O  O53  1  0.94794643  0.56737596  0.06133552  1
  O  O54  1  0.72046131  0.60054600  0.59787261  1
  O  O55  1  0.53491193  0.70845705  0.62871438  1
  O  O56  1  0.53237396  0.21196078  0.92831707  1
  O  O57  1  0.53687531  0.21425132  0.33038017  1
  O  O58  1  0.03315919  0.21480061  0.63123274  1
  Sc  Sc59  1  0.53489023  0.71979320  0.17208301  1
  Al  Al60  1  0.53778189  0.21293087  0.56476712  1
  Y  Y61  1  0.02642723  0.70933098  0.82038319  1
  O  O62  1  0.03857373  0.72366500  0.11535318  1
