# generated using pymatgen
data_Rb2BaNa2AcLaMg2ScMn2Tl2Fe2SiNi2HgN
_symmetry_space_group_name_H-M   'P 1'
_cell_length_a   3.56896901
_cell_length_b   5.67572832
_cell_length_c   6.40948486
_cell_angle_alpha   91.83692169
_cell_angle_beta   90.69073486
_cell_angle_gamma   92.64938354
_symmetry_Int_Tables_number   1
_chemical_formula_structural   Rb2BaNa2AcLaMg2ScMn2Tl2Fe2SiNi2HgN
_chemical_formula_sum
'Rb2 Ba1 Na2 La1 Ac1 Mg2 Sc1 Mn2 Tl2 Fe2 Si1 Ni2 Hg1 N1'
_cell_volume   129.61637706
_cell_formula_units_Z   1
loop_
 _symmetry_equiv_pos_site_id
 _symmetry_equiv_pos_as_xyz
  1  'x, y, z'
loop_
 _atom_site_type_symbol
 _atom_site_label
 _atom_site_symmetry_multiplicity
 _atom_site_fract_x
 _atom_site_fract_y
 _atom_site_fract_z
 _atom_site_occupancy
  La  La0  1  0.08081426  0.79405826  0.95137370  1
  Mg  Mg1  1  0.58787912  0.30114716  0.70587921  1
  Mg  Mg2  1  0.58934575  0.28847256  0.19828637  1
  Fe  Fe3  1  0.08593325  0.53815210  0.45253009  1
  Fe  Fe4  1  0.08120111  0.05398966  0.44871017  1
  Si  Si5  1  0.58331704  0.78869092  0.44818336  1
  N  N6  1  0.49844709  0.02775983  0.36720330  1
  Na  Na7  1  0.49676314  0.02774037  0.86667204  1
  Mn  Mn8  1  0.20148847  0.03085879  0.36656237  1
  Mn  Mn9  1  0.78893405  0.02704794  0.36318782  1
  Na  Na10  1  0.49862626  0.53224367  0.36509106  1
  Ba  Ba11  1  0.99651772  0.53173101  0.86852336  1
  Hg  Hg12  1  0.96417004  0.06701843  0.09678465  1
  Sc  Sc13  1  0.45155427  0.56467760  0.58996010  1
  Rb  Rb14  1  0.98337680  0.47268927  0.76386797  1
  Tl  Tl15  1  0.28315127  0.59951508  0.22669600  1
  Rb  Rb16  1  0.80963600  0.09192677  0.18165787  1
  Ni  Ni17  1  0.69236076  0.68568736  0.41125590  1
  Ni  Ni18  1  0.10322448  0.87619442  0.53866833  1
  Tl  Tl19  1  0.50891107  0.96832192  0.71964854  1
  Ac  Ac20  1  0.11712016  0.38876036  0.97674358  1
