# generated using pymatgen
data_Rb2NaLiAcLa2Eu2ScBeGaFeSiNi2HgBi2SbN
_symmetry_space_group_name_H-M   'P 1'
_cell_length_a   3.56896901
_cell_length_b   5.67572832
_cell_length_c   6.40948486
_cell_angle_alpha   91.83692169
_cell_angle_beta   90.69073486
_cell_angle_gamma   92.64938354
_symmetry_Int_Tables_number   1
_chemical_formula_structural   Rb2NaLiAcLa2Eu2ScBeGaFeSiNi2HgBi2SbN
_chemical_formula_sum
'Rb2 Na1 Li1 La2 Ac1 Eu2 Sc1 Be1 Ga1 Fe1 Si1 Ni2 Hg1 Bi2 Sb1 N1'
_cell_volume   129.61637706
_cell_formula_units_Z   1
loop_
 _symmetry_equiv_pos_site_id
 _symmetry_equiv_pos_as_xyz
  1  'x, y, z'
loop_
 _atom_site_type_symbol
 _atom_site_label
 _atom_site_symmetry_multiplicity
 _atom_site_fract_x
 _atom_site_fract_y
 _atom_site_fract_z
 _atom_site_occupancy
  Fe  Fe0  1  0.68199116  0.11063563  0.12819658  1
  La  La1  1  0.17174378  0.81283742  0.84155297  1
  Si  Si2  1  0.16862598  0.31577110  0.01321881  1
  Ga  Ga3  1  0.17958708  0.09688560  0.37756324  1
  La  La4  1  0.68354034  0.62204182  0.32093590  1
  Li  Li5  1  0.68062562  0.26007873  0.69854647  1
  N  N6  1  0.41631219  0.98110491  0.72650266  1
  Sb  Sb7  1  0.91687089  0.57566464  0.12082087  1
  Eu  Eu8  1  0.41928384  0.00037234  0.22999497  1
  Be  Be9  1  0.91577280  0.32003310  0.40020931  1
  Na  Na10  1  0.41389251  0.47614342  0.72676629  1
  Eu  Eu11  1  0.91849726  0.97395563  0.73031652  1
  Sc  Sc12  1  0.05222652  0.81869280  0.64900589  1
  Hg  Hg13  1  0.56540722  0.32536516  0.15477420  1
  Ni  Ni14  1  0.59599233  0.85829908  0.40621260  1
  Rb  Rb15  1  0.90749770  0.66150737  0.74306840  1
  Bi  Bi16  1  0.18848544  0.78392661  0.20923218  1
  Bi  Bi17  1  0.40699980  0.16146800  0.73028809  1
  Rb  Rb18  1  0.68817824  0.28075114  0.19101253  1
  Ni  Ni19  1  0.99929315  0.07858092  0.53426278  1
  Ac  Ac20  1  0.67934871  0.69757497  0.35830283  1
