# generated using pymatgen
data_Cs3K2Rb2SrLiCaDyYErSc4UVInCu2AgHgS4BrO13F18
_symmetry_space_group_name_H-M   'P 1'
_cell_length_a   6.07587099
_cell_length_b   5.94029474
_cell_length_c   6.20144558
_cell_angle_alpha   84.00587463
_cell_angle_beta   70.00710297
_cell_angle_gamma   71.27500916
_symmetry_Int_Tables_number   1
_chemical_formula_structural
Cs3K2Rb2SrLiCaDyYErSc4UVInCu2AgHgS4BrO13F18
_chemical_formula_sum
;
Cs3 Rb2 K2 Sr1 Li1 Ca1 Dy1 Y1 Er1 Sc4 U1 V1 In1 Cu2 Ag1 Hg1 S4 Br1 O13
F18
;
_cell_volume   199.19999499
_cell_formula_units_Z   1
loop_
 _symmetry_equiv_pos_site_id
 _symmetry_equiv_pos_as_xyz
  1  'x, y, z'
loop_
 _atom_site_type_symbol
 _atom_site_label
 _atom_site_symmetry_multiplicity
 _atom_site_fract_x
 _atom_site_fract_y
 _atom_site_fract_z
 _atom_site_occupancy
  F  F0  1  0.22323795  0.03334681  0.12665138  1
  F  F1  1  0.21561541  0.70111030  0.46833062  1
  F  F2  1  0.69663411  0.41247544  0.19436756  1
  Rb  Rb3  1  0.96864772  0.94899023  0.92526460  1
  O  O4  1  0.38392341  0.57284814  0.01348406  1
  Cs  Cs5  1  0.44803351  0.22692354  0.66203678  1
  O  O6  1  0.54010797  0.87780195  0.30898789  1
  F  F7  1  0.70318991  0.74462777  0.84552610  1
  Rb  Rb8  1  0.96817422  0.49825731  0.37692410  1
  V  V9  1  0.46009707  0.72093183  0.15767743  1
  F  F10  1  0.05965261  0.59487289  0.38168460  1
  Cs  Cs11  1  0.05454149  0.09753773  0.36836082  1
  F  F12  1  0.54563504  0.10053135  0.86460257  1
  Ca  Ca13  1  0.30666164  0.35195166  0.61517531  1
  F  F14  1  0.05610492  0.10225491  0.86880106  1
  F  F15  1  0.06194825  0.59371471  0.86402345  1
  K  K16  1  0.55058360  0.59891593  0.86910129  1
  F  F17  1  0.54921234  0.10497552  0.37322000  1
  Sr  Sr18  1  0.80539852  0.84386599  0.12005517  1
  F  F19  1  0.54433197  0.59492964  0.37598538  1
  Cu  Cu20  1  0.59613168  0.80665952  0.17093483  1
  O  O21  1  0.94753885  0.25317428  0.00682893  1
  O  O22  1  0.37925816  0.50428194  0.88100636  1
  Er  Er23  1  0.38977510  0.33313999  0.11646356  1
  U  U24  1  0.35323370  0.00800103  0.48976061  1
  O  O25  1  0.20666331  0.80635124  0.69642150  1
  Dy  Dy26  1  0.84926307  0.61179692  0.86897022  1
  O  O27  1  0.82734603  0.55318111  0.15405926  1
  Cu  Cu28  1  0.88082373  0.52178967  0.38424346  1
  O  O29  1  0.35067561  0.17305902  0.68062764  1
  O  O30  1  0.27297306  0.34588230  0.37826261  1
  O  O31  1  0.44453654  0.04405649  0.22403109  1
  O  O32  1  0.50997591  0.71746707  0.39850572  1
  O  O33  1  0.85518736  0.02574402  0.47009954  1
  O  O34  1  0.87212515  0.51363456  0.61377674  1
  In  In35  1  0.13884871  0.02279602  0.89025944  1
  Y  Y36  1  0.38272440  0.48203516  0.60650122  1
  O  O37  1  0.64882690  0.88551009  0.94858372  1
  Sc  Sc38  1  0.80409276  0.38272285  0.90899253  1
  Li  Li39  1  0.48944211  0.62614310  0.18297777  1
  F  F40  1  0.97924876  0.65761989  0.12603334  1
  F  F41  1  0.32772210  0.42182112  0.94107747  1
  Sc  Sc42  1  0.67916727  0.76616120  0.56304479  1
  F  F43  1  0.17744318  0.78293091  0.56260574  1
  F  F44  1  0.55229414  0.47636116  0.37419844  1
  F  F45  1  0.75850546  0.60259497  0.74996406  1
  Hg  Hg46  1  0.19488740  0.09236046  0.24361917  1
  F  F47  1  0.63640141  0.90916920  0.36558396  1
  F  F48  1  0.73748702  0.16729645  0.06453626  1
  F  F49  1  0.76131523  0.09491830  0.72379452  1
  S  S50  1  0.99903411  0.15266746  0.17262428  1
  S  S51  1  0.58400863  0.82712227  0.31726232  1
  Sc  Sc52  1  0.26218015  0.06952965  0.39648771  1
  S  S53  1  0.04779164  0.95165586  0.62216157  1
  Br  Br54  1  0.58935010  0.56508267  0.88251972  1
  Ag  Ag55  1  0.42440391  0.64723563  0.58037192  1
  K  K56  1  0.07459255  0.58276778  0.13576125  1
  S  S57  1  0.42266825  0.31627187  0.47237906  1
  Cs  Cs58  1  0.52246404  0.06768398  0.89244223  1
  Sc  Sc59  1  0.76284981  0.06416346  0.39605522  1
