# generated using pymatgen
data_Cs4K3RbSrCaDy4Tm2Zr2Sc3CuP2S6(O8F7)2
_symmetry_space_group_name_H-M   'P 1'
_cell_length_a   6.07587099
_cell_length_b   5.94029474
_cell_length_c   6.20144558
_cell_angle_alpha   84.00587463
_cell_angle_beta   70.00710297
_cell_angle_gamma   71.27500916
_symmetry_Int_Tables_number   1
_chemical_formula_structural   Cs4K3RbSrCaDy4Tm2Zr2Sc3CuP2S6(O8F7)2
_chemical_formula_sum
'Cs4 Rb1 K3 Sr1 Ca1 Dy4 Tm2 Zr2 Sc3 Cu1 P2 S6 O16 F14'
_cell_volume   199.19999499
_cell_formula_units_Z   1
loop_
 _symmetry_equiv_pos_site_id
 _symmetry_equiv_pos_as_xyz
  1  'x, y, z'
loop_
 _atom_site_type_symbol
 _atom_site_label
 _atom_site_symmetry_multiplicity
 _atom_site_fract_x
 _atom_site_fract_y
 _atom_site_fract_z
 _atom_site_occupancy
  Cs  Cs0  1  0.60701197  0.52344388  0.08365592  1
  O  O1  1  0.53398055  0.04429968  0.05492115  1
  P  P2  1  0.26374704  0.15173198  0.16558798  1
  Cs  Cs3  1  0.11210313  0.80023408  0.81425333  1
  Cs  Cs4  1  0.61198986  0.06539503  0.53895521  1
  O  O5  1  0.08892860  0.53853559  0.52601314  1
  O  O6  1  0.10726854  0.15354280  0.43820244  1
  O  O7  1  0.68804675  0.51970977  0.54272997  1
  P  P8  1  0.97087497  0.43240833  0.44910094  1
  O  O9  1  0.10814968  0.42037687  0.15865490  1
  Rb  Rb10  1  0.87260449  0.23908217  0.88378310  1
  Cs  Cs11  1  0.43395388  0.48656902  0.44230342  1
  F  F12  1  0.14604996  0.88005346  0.16872880  1
  Sr  Sr13  1  0.03070232  0.66043496  0.04959700  1
  K  K14  1  0.64287311  0.86627287  0.67058277  1
  F  F15  1  0.14239167  0.88779980  0.65893519  1
  F  F16  1  0.93619037  0.35922039  0.38349876  1
  F  F17  1  0.36881053  0.35641459  0.96477485  1
  F  F18  1  0.63463223  0.88646412  0.16899520  1
  Ca  Ca19  1  0.25542748  0.08353760  0.27730283  1
  Dy  Dy20  1  0.08625005  0.74846458  0.33747831  1
  Zr  Zr21  1  0.92312038  0.66666991  0.85715103  1
  O  O22  1  0.04966963  0.01109380  0.16349110  1
  Dy  Dy23  1  0.41181281  0.90431869  0.63350141  1
  O  O24  1  0.45222607  0.63695902  0.80702114  1
  O  O25  1  0.97871870  0.77161473  0.60274827  1
  O  O26  1  0.29803455  0.46639463  0.30360961  1
  O  O27  1  0.72371048  0.96587914  0.85644865  1
  Dy  Dy28  1  0.61507863  0.29260710  0.79198313  1
  O  O29  1  0.51670557  0.87676537  0.36819276  1
  Zr  Zr30  1  0.57568765  0.98715818  0.11515161  1
  O  O31  1  0.48972645  0.24873815  0.06773286  1
  O  O32  1  0.00609665  0.40425554  0.90051436  1
  O  O33  1  0.21287771  0.18465170  0.67218721  1
  O  O34  1  0.75312692  0.32172003  0.48692173  1
  Dy  Dy35  1  0.88936073  0.36367437  0.18124461  1
  O  O36  1  0.81565368  0.68045127  0.11185725  1
  Cu  Cu37  1  0.25667000  0.32525730  0.48327959  1
  Sc  Sc38  1  0.84763902  0.02345511  0.74430794  1
  F  F39  1  0.34794876  0.35605535  0.41209966  1
  F  F40  1  0.35067376  0.02855933  0.74251294  1
  F  F41  1  0.34623078  0.68823916  0.07327452  1
  Sc  Sc42  1  0.85265446  0.68858349  0.07529974  1
  Sc  Sc43  1  0.85396546  0.35712966  0.41006708  1
  F  F44  1  0.84424007  0.01853991  0.23984656  1
  F  F45  1  0.84960538  0.18725915  0.57503581  1
  F  F46  1  0.84734297  0.35303676  0.90986079  1
  F  F47  1  0.84705478  0.68990541  0.57518029  1
  F  F48  1  0.84673131  0.52194315  0.24197906  1
  F  F49  1  0.84809256  0.85942954  0.91089422  1
  K  K50  1  0.73379755  0.84458876  0.47084934  1
  S  S51  1  0.73456651  0.34680432  0.46731097  1
  S  S52  1  0.23034340  0.09863894  0.21788824  1
  S  S53  1  0.73364508  0.84862316  0.97033465  1
  Tm  Tm54  1  0.23411708  0.34787473  0.46634954  1
  Tm  Tm55  1  0.23564875  0.84751123  0.96867341  1
  S  S56  1  0.23597734  0.59710538  0.72063297  1
  S  S57  1  0.23644780  0.60176080  0.21815582  1
  S  S58  1  0.23359556  0.09476066  0.71474320  1
  K  K59  1  0.73347831  0.35062027  0.96986306  1
