# generated using pymatgen
data_CaLaYbPr2Ho2Hf2UTaTi4Al2TlCdBS4Cl2O19F17
_symmetry_space_group_name_H-M   'P 1'
_cell_length_a   5.06651592
_cell_length_b   6.96818829
_cell_length_c   9.07620811
_cell_angle_alpha   103.01397705
_cell_angle_beta   93.83329773
_cell_angle_gamma   96.98336029
_symmetry_Int_Tables_number   1
_chemical_formula_structural
CaLaYbPr2Ho2Hf2UTaTi4Al2TlCdBS4Cl2O19F17
_chemical_formula_sum
'Ca1 La1 Yb1 Pr2 Ho2 Hf2 U1 Ta1 Ti4 Al2 Tl1 Cd1 B1 S4 Cl2 O19 F17'
_cell_volume   308.40955817
_cell_formula_units_Z   1
loop_
 _symmetry_equiv_pos_site_id
 _symmetry_equiv_pos_as_xyz
  1  'x, y, z'
loop_
 _atom_site_type_symbol
 _atom_site_label
 _atom_site_symmetry_multiplicity
 _atom_site_fract_x
 _atom_site_fract_y
 _atom_site_fract_z
 _atom_site_occupancy
  La  La0  1  0.95901269  0.66050524  0.56183732  1
  Pr  Pr1  1  0.50971663  0.86360228  0.97346616  1
  O  O2  1  0.89442521  0.31300044  0.61209935  1
  O  O3  1  0.23362362  0.58224535  0.03733438  1
  O  O4  1  0.21966060  0.61325443  0.33362839  1
  O  O5  1  0.70017278  0.38891366  0.34789789  1
  Hf  Hf6  1  0.66049904  0.12822731  0.42830917  1
  O  O7  1  0.75589895  0.69281989  0.12649208  1
  O  O8  1  0.88304764  0.90576601  0.38487658  1
  S  S9  1  0.42998439  0.59833068  0.69472408  1
  Ti  Ti10  1  0.08192763  0.78445357  0.21532579  1
  U  U11  1  0.13362533  0.30697349  0.81951821  1
  O  O12  1  0.38730121  0.98393291  0.23629269  1
  S  S13  1  0.35445216  0.04247326  0.60449415  1
  Hf  Hf14  1  0.50342041  0.49013525  0.18426341  1
  S  S15  1  0.01253661  0.92964619  0.89206749  1
  S  S16  1  0.61189091  0.26707178  0.95300817  1
  F  F17  1  0.24070607  0.50357658  0.03426742  1
  F  F18  1  0.88866085  0.80946892  0.96688932  1
  F  F19  1  0.72945523  0.29409057  0.08492989  1
  F  F20  1  0.71253753  0.53030515  0.47588027  1
  O  O21  1  0.25843304  0.94448161  0.46602377  1
  Al  Al22  1  0.90268373  0.29929730  0.95435250  1
  F  F23  1  0.09054887  0.74010813  0.63101876  1
  Al  Al24  1  0.36216772  0.22873169  0.37191123  1
  F  F25  1  0.39538088  0.52551651  0.28862485  1
  Tl  Tl26  1  0.51290399  0.48042607  0.73024589  1
  Cd  Cd27  1  0.64695174  0.78668725  0.15666176  1
  B  B28  1  0.06764276  0.68249428  0.50790185  1
  F  F29  1  0.14151177  0.39597410  0.47172737  1
  F  F30  1  0.07981983  0.93946069  0.25690016  1
  F  F31  1  0.03668290  0.32586256  0.82328421  1
  F  F32  1  0.54708499  0.06673357  0.87718940  1
  F  F33  1  0.63940018  0.15750255  0.30230114  1
  O  O34  1  0.22082661  0.35938194  0.22127548  1
  O  O35  1  0.21651529  0.85481828  0.71805036  1
  O  O36  1  0.72353572  0.35852799  0.71966553  1
  Ta  Ta37  1  0.21676445  0.35892889  0.72655445  1
  Ti  Ti38  1  0.06978578  0.38966572  0.40073180  1
  O  O39  1  0.24904944  0.60431862  0.34496227  1
  F  F40  1  0.81375927  0.16975459  0.33910745  1
  F  F41  1  0.76178306  0.65998125  0.51589894  1
  Ca  Ca42  1  0.52580613  0.88899434  0.27433223  1
  F  F43  1  0.83863395  0.59205216  0.13291156  1
  F  F44  1  0.03143401  0.89062643  0.83307111  1
  O  O45  1  0.30230412  0.12070340  0.52398711  1
  F  F46  1  0.23015960  0.19145261  0.11632033  1
  Ti  Ti47  1  0.29093724  0.12605861  0.80951363  1
  Ti  Ti48  1  0.78591847  0.63996142  0.82855582  1
  O  O49  1  0.03029968  0.38503313  0.73298788  1
  F  F50  1  0.53082186  0.39002609  0.82983989  1
  O  O51  1  0.53149402  0.89075738  0.89658612  1
  Ho  Ho52  1  0.81458712  0.47370264  0.08702226  1
  Cl  Cl53  1  0.66318059  0.64121771  0.77346408  1
  O  O54  1  0.34415942  0.65618497  0.13924645  1
  Pr  Pr55  1  0.31323710  0.96892631  0.07286721  1
  Cl  Cl56  1  0.16127129  0.15956801  0.76970136  1
  Ho  Ho57  1  0.01470884  0.33781236  0.46769291  1
  Yb  Yb58  1  0.50728476  0.82991201  0.47081986  1
  O  O59  1  0.84850627  0.17660032  0.14298953  1
  O  O60  1  0.48114821  0.14079866  0.40765816  1
  O  O61  1  0.97168767  0.62481254  0.39961374  1
