# generated using pymatgen
data_CsK3Rb2EuDy4Tm2Zr2Sc3P2Br6(O7F10)2
_symmetry_space_group_name_H-M   'P 1'
_cell_length_a   6.07587099
_cell_length_b   5.94029474
_cell_length_c   6.20144558
_cell_angle_alpha   84.00587463
_cell_angle_beta   70.00710297
_cell_angle_gamma   71.27500916
_symmetry_Int_Tables_number   1
_chemical_formula_structural   CsK3Rb2EuDy4Tm2Zr2Sc3P2Br6(O7F10)2
_chemical_formula_sum
'Cs1 Rb2 K3 Eu1 Dy4 Tm2 Zr2 Sc3 P2 Br6 O14 F20'
_cell_volume   199.19999499
_cell_formula_units_Z   1
loop_
 _symmetry_equiv_pos_site_id
 _symmetry_equiv_pos_as_xyz
  1  'x, y, z'
loop_
 _atom_site_type_symbol
 _atom_site_label
 _atom_site_symmetry_multiplicity
 _atom_site_fract_x
 _atom_site_fract_y
 _atom_site_fract_z
 _atom_site_occupancy
  F  F0  1  0.82107323  0.85996151  0.03218359  1
  Cs  Cs1  1  0.39195868  0.51168805  0.70238721  1
  F  F2  1  0.96128905  0.06912608  0.37476155  1
  P  P3  1  0.55196536  0.88287699  0.09263641  1
  O  O4  1  0.97432089  0.36576807  0.61239702  1
  F  F5  1  0.10128458  0.39609778  0.18766238  1
  O  O6  1  0.38321230  0.05357494  0.33250916  1
  O  O7  1  0.46858159  0.96363854  0.91190004  1
  P  P8  1  0.09624886  0.22527115  0.39477661  1
  F  F9  1  0.54926693  0.61080694  0.16031857  1
  F  F10  1  0.56568348  0.23734076  0.63166475  1
  Rb  Rb11  1  0.55489838  0.20994623  0.15099971  1
  Rb  Rb12  1  0.06166835  0.73309964  0.66395348  1
  F  F13  1  0.56952190  0.69291419  0.17609879  1
  F  F14  1  0.03732371  0.70542133  0.19044277  1
  F  F15  1  0.57972664  0.70710522  0.64542627  1
  F  F16  1  0.04211005  0.24649782  0.64363790  1
  Eu  Eu17  1  0.80373436  0.47419423  0.40779546  1
  K  K18  1  0.30373400  0.97102404  0.90592265  1
  F  F19  1  0.02859325  0.23823671  0.17119792  1
  Dy  Dy20  1  0.61116022  0.53590178  0.06556299  1
  O  O21  1  0.74881107  0.07953046  0.69048887  1
  O  O22  1  0.95930982  0.01473076  0.32915387  1
  O  O23  1  0.09468795  0.57030952  0.61368859  1
  Zr  Zr24  1  0.41796768  0.08067477  0.35278234  1
  O  O25  1  0.46778938  0.83990157  0.49924079  1
  Dy  Dy26  1  0.05278899  0.70737314  0.35988790  1
  Dy  Dy27  1  0.66501862  0.38377303  0.59981430  1
  O  O28  1  0.57623059  0.36722645  0.86012912  1
  O  O29  1  0.24124567  0.27141309  0.48766729  1
  Zr  Zr30  1  0.57336676  0.08061014  0.93509400  1
  F  F31  1  0.54683280  0.86521882  0.16145748  1
  O  O32  1  0.61710674  0.77373970  0.85971141  1
  O  O33  1  0.49934313  0.23063064  0.14036393  1
  Dy  Dy34  1  0.14316660  0.81183666  0.73360443  1
  O  O35  1  0.08727515  0.02774168  0.93625557  1
  O  O36  1  0.62802798  0.53846675  0.34122351  1
  O  O37  1  0.09600898  0.61671686  0.10071401  1
  F  F38  1  0.56292975  0.46872789  0.80532622  1
  Sc  Sc39  1  0.57454085  0.13777895  0.63667905  1
  F  F40  1  0.05991637  0.13835280  0.63833737  1
  F  F41  1  0.07189730  0.46900904  0.30492783  1
  F  F42  1  0.56685948  0.30642772  0.47439367  1
  F  F43  1  0.56099409  0.13185474  0.13948174  1
  F  F44  1  0.06557381  0.80476344  0.97373694  1
  Sc  Sc45  1  0.57093489  0.80312061  0.97159004  1
  F  F46  1  0.56524730  0.96864623  0.80536330  1
  F  F47  1  0.55085605  0.62591070  0.14068387  1
  Sc  Sc48  1  0.56989276  0.46783182  0.30452597  1
  F  F49  1  0.56848001  0.80453235  0.47014296  1
  Tm  Tm50  1  0.45842832  0.40131932  0.94394320  1
  Br  Br51  1  0.46110916  0.21686441  0.63869685  1
  K  K52  1  0.94889307  0.40295070  0.44142121  1
  Br  Br53  1  0.95135945  0.40027696  0.94166833  1
  K  K54  1  0.95776153  0.89743960  0.94322205  1
  Br  Br55  1  0.46139878  0.71411294  0.76023436  1
  Br  Br56  1  0.45096284  0.58795172  0.25501165  1
  Br  Br57  1  0.96030819  0.89945132  0.44789681  1
  Tm  Tm58  1  0.45876077  0.90302545  0.44250047  1
  Br  Br59  1  0.46054134  0.08624028  0.12720309  1
