# generated using pymatgen
data_Cs2K3RbSr2Dy4Tm2Zr2Sc3SiPS6(O5F6)3
_symmetry_space_group_name_H-M   'P 1'
_cell_length_a   6.07587099
_cell_length_b   5.94029474
_cell_length_c   6.20144558
_cell_angle_alpha   84.00587463
_cell_angle_beta   70.00710297
_cell_angle_gamma   71.27500916
_symmetry_Int_Tables_number   1
_chemical_formula_structural   Cs2K3RbSr2Dy4Tm2Zr2Sc3SiPS6(O5F6)3
_chemical_formula_sum
'Cs2 K3 Rb1 Sr2 Dy4 Tm2 Zr2 Sc3 Si1 P1 S6 O15 F18'
_cell_volume   199.19999499
_cell_formula_units_Z   1
loop_
 _symmetry_equiv_pos_site_id
 _symmetry_equiv_pos_as_xyz
  1  'x, y, z'
loop_
 _atom_site_type_symbol
 _atom_site_label
 _atom_site_symmetry_multiplicity
 _atom_site_fract_x
 _atom_site_fract_y
 _atom_site_fract_z
 _atom_site_occupancy
  O  O0  1  0.92046583  0.71698123  0.46618885  1
  Cs  Cs1  1  0.50833803  0.57700229  0.95402920  1
  Cs  Cs2  1  0.01244217  0.20569068  0.29131740  1
  O  O3  1  0.87655801  0.73154074  0.10386354  1
  P  P4  1  0.77321118  0.77917218  0.34096125  1
  O  O5  1  0.44412661  0.10610078  0.84921247  1
  O  O6  1  0.43398640  0.32887590  0.47091964  1
  F  F7  1  0.04241319  0.19437198  0.77275217  1
  O  O8  1  0.47955534  0.88692027  0.47385138  1
  Si  Si9  1  0.36973095  0.13783094  0.63466609  1
  F  F10  1  0.39666802  0.60014993  0.73484349  1
  Sr  Sr11  1  0.15491587  0.85167587  0.98453963  1
  F  F12  1  0.39972174  0.60470599  0.23122117  1
  K  K13  1  0.90103400  0.59986722  0.73290801  1
  Rb  Rb14  1  0.39775798  0.10071887  0.23209246  1
  Sr  Sr15  1  0.65050763  0.35599625  0.48134413  1
  F  F16  1  0.89863276  0.60341787  0.23557675  1
  F  F17  1  0.39702860  0.09674358  0.73556876  1
  F  F18  1  0.90222180  0.10417727  0.23006243  1
  F  F19  1  0.90321308  0.10057272  0.73361087  1
  F  F20  1  0.37129167  0.29651195  0.65813196  1
  F  F21  1  0.51419008  0.24381772  0.31551975  1
  O  O22  1  0.43171644  0.91522485  0.83611155  1
  Zr  Zr23  1  0.56995648  0.64782304  0.85127604  1
  O  O24  1  0.60636783  0.68309897  0.61271036  1
  Zr  Zr25  1  0.33597958  0.89653778  0.11945550  1
  Dy  Dy26  1  0.81519216  0.14597692  0.85018188  1
  Dy  Dy27  1  0.45111176  0.00001004  0.54421121  1
  O  O28  1  0.65935695  0.38586554  0.95779806  1
  Dy  Dy29  1  0.09374780  0.40038288  0.11406458  1
  O  O30  1  0.83731139  0.92454433  0.08217457  1
  O  O31  1  0.94333392  0.05469990  0.60696864  1
  O  O32  1  0.96686423  0.48771262  0.36131603  1
  O  O33  1  0.30906242  0.85683572  0.35678399  1
  Dy  Dy34  1  0.45425853  0.53320915  0.42925742  1
  O  O35  1  0.07313845  0.61779219  0.88690269  1
  O  O36  1  0.25190827  0.15497531  0.01247391  1
  O  O37  1  0.46422142  0.62199104  0.13619722  1
  F  F38  1  0.73243439  0.16435586  0.99590456  1
  F  F39  1  0.72858465  0.32664534  0.32902834  1
  F  F40  1  0.23450999  0.66414738  0.49345154  1
  F  F41  1  0.23361708  0.33141807  0.82951421  1
  F  F42  1  0.72915268  0.99791741  0.66229832  1
  F  F43  1  0.73030633  0.66967767  0.99346733  1
  Sc  Sc44  1  0.73510611  0.99892044  0.16587190  1
  Sc  Sc45  1  0.73034191  0.32977325  0.82816458  1
  F  F46  1  0.73279691  0.49562141  0.66122222  1
  F  F47  1  0.23220302  0.99470729  0.16228984  1
  Sc  Sc48  1  0.73174506  0.66790104  0.49834475  1
  F  F49  1  0.72965372  0.83260059  0.33052361  1
  K  K50  1  0.01594506  0.64484215  0.49947515  1
  S  S51  1  0.50674784  0.32389954  0.18272331  1
  S  S52  1  0.50437832  0.96711278  0.82292551  1
  S  S53  1  0.51307738  0.82940978  0.31417426  1
  S  S54  1  0.52020168  0.45900035  0.68299198  1
  Tm  Tm55  1  0.50656891  0.64325446  0.00368369  1
  K  K56  1  0.01048796  0.14286782  0.00324488  1
  S  S57  1  0.00620677  0.64518023  0.00291871  1
  Tm  Tm58  1  0.51012713  0.14704181  0.50330669  1
  S  S59  1  0.01128460  0.14688721  0.50310493  1
