# generated using pymatgen
data_CaYbCePr2ErLuU2Ti4Al3Cd2O17F27
_symmetry_space_group_name_H-M   'P 1'
_cell_length_a   5.06651592
_cell_length_b   6.96818829
_cell_length_c   9.07620811
_cell_angle_alpha   103.01397705
_cell_angle_beta   93.83329773
_cell_angle_gamma   96.98336029
_symmetry_Int_Tables_number   1
_chemical_formula_structural   CaYbCePr2ErLuU2Ti4Al3Cd2O17F27
_chemical_formula_sum
'Ca1 Yb1 Ce1 Pr2 Er1 Lu1 U2 Ti4 Al3 Cd2 O17 F27'
_cell_volume   308.40955817
_cell_formula_units_Z   1
loop_
 _symmetry_equiv_pos_site_id
 _symmetry_equiv_pos_as_xyz
  1  'x, y, z'
loop_
 _atom_site_type_symbol
 _atom_site_label
 _atom_site_symmetry_multiplicity
 _atom_site_fract_x
 _atom_site_fract_y
 _atom_site_fract_z
 _atom_site_occupancy
  Ce  Ce0  1  0.72247005  0.66874874  0.11931960  1
  O  O1  1  0.96613395  0.99896932  0.22503372  1
  Er  Er2  1  0.75463396  0.86757034  0.77262056  1
  O  O3  1  0.94924271  0.61410791  0.88199049  1
  O  O4  1  0.52399087  0.89454466  0.99040574  1
  O  O5  1  0.49309945  0.84403616  0.33229923  1
  O  O6  1  0.44321859  0.61478245  0.67499852  1
  Lu  Lu7  1  0.28529710  0.12947831  0.10075486  1
  O  O8  1  0.50858963  0.32945815  0.31242546  1
  O  O9  1  0.04533565  0.12298831  0.88054639  1
  Cd  Cd10  1  0.25752252  0.60886854  0.44762212  1
  O  O11  1  0.94129670  0.85528421  0.54518402  1
  O  O12  1  0.52713943  0.12894419  0.66194111  1
  O  O13  1  0.01319485  0.33164483  0.54409236  1
  U  U14  1  0.73620141  0.09834412  0.43713433  1
  O  O15  1  0.43445778  0.40169838  0.99875247  1
  U  U16  1  0.23289570  0.37203866  0.77800441  1
  F  F17  1  0.45800817  0.84873050  0.84459478  1
  Al  Al18  1  0.89773738  0.64208806  0.56367332  1
  Cd  Cd19  1  0.46104765  0.34780633  0.84591717  1
  F  F20  1  0.30530000  0.31377101  0.03118169  1
  F  F21  1  0.79053640  0.19749229  0.08695339  1
  Al  Al22  1  0.03670076  0.07090533  0.12911780  1
  Al  Al23  1  0.47224766  0.85601360  0.34578827  1
  F  F24  1  0.16790164  0.85007870  0.45068404  1
  F  F25  1  0.01686939  0.98881072  0.71079552  1
  F  F26  1  0.91083753  0.70820874  0.97685134  1
  F  F27  1  0.77202630  0.84049577  0.24006429  1
  F  F28  1  0.61832017  0.38897282  0.65855372  1
  F  F29  1  0.29981411  0.92591149  0.20608926  1
  F  F30  1  0.70945525  0.27760249  0.41835031  1
  F  F31  1  0.65106869  0.78478968  0.48354459  1
  F  F32  1  0.15348962  0.53959703  0.61599898  1
  F  F33  1  0.23678589  0.42338020  0.27533263  1
  Ti  Ti34  1  0.10897917  0.42930320  0.59530413  1
  O  O35  1  0.60113639  0.44198510  0.59535843  1
  O  O36  1  0.10890163  0.43772089  0.08925207  1
  O  O37  1  0.10450085  0.93958396  0.60011035  1
  Ti  Ti38  1  0.43946230  0.86362183  0.90103811  1
  F  F39  1  0.18805611  0.61569571  0.91130841  1
  Ca  Ca40  1  0.18434592  0.11513995  0.34489593  1
  Ti  Ti41  1  0.93638372  0.36256731  0.90247244  1
  F  F42  1  0.41281641  0.88558632  0.59756279  1
  F  F43  1  0.46503672  0.39450157  0.43569437  1
  O  O44  1  0.90751940  0.82833397  0.41120583  1
  O  O45  1  0.68933302  0.61715239  0.79732573  1
  F  F46  1  0.68820620  0.11278740  0.89676565  1
  F  F47  1  0.96513790  0.33545080  0.59717208  1
  Ti  Ti48  1  0.70206201  0.63140553  0.46641600  1
  F  F49  1  0.49121383  0.80071610  0.20350590  1
  F  F50  1  0.86575097  0.41777763  0.20104057  1
  O  O51  1  0.18578441  0.11503076  0.97014439  1
  F  F52  1  0.66495883  0.73380470  0.61436456  1
  F  F53  1  0.67566371  0.17180566  0.61799812  1
  Pr  Pr54  1  0.17933764  0.95347983  0.62217462  1
  F  F55  1  0.00827660  0.01601915  0.27069107  1
  F  F56  1  0.99855947  0.53640574  0.26586121  1
  F  F57  1  0.34775105  0.36218894  0.96808124  1
  Pr  Pr58  1  0.52755904  0.30070961  0.30670297  1
  F  F59  1  0.33633125  0.89580810  0.96487522  1
  Yb  Yb60  1  0.83536780  0.61224514  0.93308812  1
  F  F61  1  0.16925883  0.45052323  0.60993463  1
