# generated using pymatgen
data_CaYbEuMg8Sc4TaTiBe2NbTlZn2HgC2
_symmetry_space_group_name_H-M   'P 1'
_cell_length_a   4.88512754
_cell_length_b   6.39535809
_cell_length_c   6.57602072
_cell_angle_alpha   112.87458038
_cell_angle_beta   89.61576843
_cell_angle_gamma   91.39128113
_symmetry_Int_Tables_number   1
_chemical_formula_structural   CaYbEuMg8Sc4TaTiBe2NbTlZn2HgC2
_chemical_formula_sum
'Ca1 Yb1 Eu1 Mg8 Sc4 Ta1 Ti1 Be2 Nb1 Tl1 Zn2 Hg1 C2'
_cell_volume   189.23539618
_cell_formula_units_Z   1
loop_
 _symmetry_equiv_pos_site_id
 _symmetry_equiv_pos_as_xyz
  1  'x, y, z'
loop_
 _atom_site_type_symbol
 _atom_site_label
 _atom_site_symmetry_multiplicity
 _atom_site_fract_x
 _atom_site_fract_y
 _atom_site_fract_z
 _atom_site_occupancy
  Mg  Mg0  1  0.15713292  0.36020073  0.93005311  1
  Mg  Mg1  1  0.65602601  0.68670624  0.09655087  1
  Mg  Mg2  1  0.15765722  0.86327827  0.92503381  1
  Mg  Mg3  1  0.65496796  0.18734102  0.10043090  1
  Mg  Mg4  1  0.15283030  0.35613361  0.42295185  1
  Mg  Mg5  1  0.15752217  0.85577762  0.42246649  1
  Mg  Mg6  1  0.65621781  0.19115485  0.59714377  1
  Mg  Mg7  1  0.66240072  0.68996882  0.60058331  1
  Sc  Sc8  1  0.09896316  0.27198458  0.48797837  1
  Sc  Sc9  1  0.10780285  0.76474649  0.49128485  1
  Zn  Zn10  1  0.49067023  0.89594537  0.24828310  1
  Sc  Sc11  1  0.40660852  0.30609143  0.07765555  1
  Sc  Sc12  1  0.81325454  0.72778839  0.91349280  1
  Zn  Zn13  1  0.72180665  0.13972746  0.73708862  1
  Ca  Ca14  1  0.33727324  0.37797907  0.55616069  1
  C  C15  1  0.83181822  0.87277579  0.55605656  1
  Eu  Eu16  1  0.83011365  0.87012571  0.05566379  1
  C  C17  1  0.33672109  0.36906973  0.05265849  1
  Ti  Ti18  1  0.33635071  0.48521042  0.89887309  1
  Nb  Nb19  1  0.82895058  0.99082124  0.39181405  1
  Ta  Ta20  1  0.08011325  0.24266814  0.63963777  1
  Hg  Hg21  1  0.58089417  0.73417771  0.14837992  1
  Tl  Tl22  1  0.25087601  0.70195037  0.76374269  1
  Yb  Yb23  1  0.74349815  0.36936373  0.10497081  1
  Be  Be24  1  0.25098255  0.03404750  0.43978515  1
  Be  Be25  1  0.75481695  0.04354722  0.43245417  1
