# generated using pymatgen
data_Li2Ca3EuGdTi4Tl2Cd3Ga2CoCuAg8Hg2Sb4Ru5Pb
_symmetry_space_group_name_H-M   'P 1'
_cell_length_a   4.53447056
_cell_length_b   6.23771715
_cell_length_c   6.96270227
_cell_angle_alpha   84.41940308
_cell_angle_beta   78.29293823
_cell_angle_gamma   77.43684387
_symmetry_Int_Tables_number   1
_chemical_formula_structural
Li2Ca3EuGdTi4Tl2Cd3Ga2CoCuAg8Hg2Sb4Ru5Pb
_chemical_formula_sum
'Li2 Ca3 Gd1 Eu1 Ti4 Tl2 Cd3 Ga2 Co1 Cu1 Ag8 Hg2 Sb4 Ru5 Pb1'
_cell_volume   187.93343918
_cell_formula_units_Z   1
loop_
 _symmetry_equiv_pos_site_id
 _symmetry_equiv_pos_as_xyz
  1  'x, y, z'
loop_
 _atom_site_type_symbol
 _atom_site_label
 _atom_site_symmetry_multiplicity
 _atom_site_fract_x
 _atom_site_fract_y
 _atom_site_fract_z
 _atom_site_occupancy
  Gd  Gd0  1  0.66398638  0.52476531  0.04614614  1
  Ag  Ag1  1  0.08743352  0.40045017  0.32636738  1
  Ag  Ag2  1  0.37578005  0.14681460  0.00577717  1
  Ca  Ca3  1  0.37686634  0.53202522  0.60962337  1
  Ca  Ca4  1  0.79918164  0.97915339  0.33140391  1
  Ag  Ag5  1  0.04038857  0.88157725  0.93471861  1
  Cu  Cu6  1  0.65228856  0.87869859  0.72182560  1
  Ag  Ag7  1  0.05431528  0.15025772  0.63985854  1
  Li  Li8  1  0.80625004  0.58056176  0.33736968  1
  Sb  Sb9  1  0.55319732  0.63983744  0.82558286  1
  Sb  Sb10  1  0.39150774  0.11309309  0.50553870  1
  Li  Li11  1  0.15073991  0.16390434  0.00893234  1
  Ga  Ga12  1  0.34541830  0.76519448  0.24282497  1
  Ti  Ti13  1  0.33773679  0.75872076  0.74157542  1
  Ti  Ti14  1  0.66879785  0.43525708  0.41210935  1
  Ga  Ga15  1  0.00903910  0.09801970  0.57855415  1
  Ru  Ru16  1  0.67070776  0.43114403  0.66081071  1
  Ru  Ru17  1  0.00262853  0.08936324  0.82903475  1
  Co  Co18  1  0.66914725  0.43511826  0.16143949  1
  Ti  Ti19  1  0.67581314  0.43015307  0.91308630  1
  Ru  Ru20  1  0.34240222  0.76111257  0.99388480  1
  Ru  Ru21  1  0.01151496  0.10129815  0.32698056  1
  Ti  Ti22  1  0.01195423  0.09972829  0.08091179  1
  Ru  Ru23  1  0.33257151  0.75922352  0.49144369  1
  Pb  Pb24  1  0.00478343  0.06454671  0.34042430  1
  Ag  Ag25  1  0.50465316  0.31436393  0.58928025  1
  Cd  Cd26  1  0.50290602  0.81351101  0.07817814  1
  Cd  Cd27  1  0.83525831  0.06372637  0.83318454  1
  Cd  Cd28  1  0.33497089  0.81197542  0.58818138  1
  Sb  Sb29  1  0.83181715  0.56092155  0.33237532  1
  Sb  Sb30  1  0.33064261  0.30835444  0.07314333  1
  Ag  Ag31  1  0.99945509  0.56749803  0.83365369  1
  Hg  Hg32  1  0.75896108  0.28166008  0.43898138  1
  Ag  Ag33  1  0.25022069  0.12293408  0.57671016  1
  Ca  Ca34  1  0.25068870  0.10864129  0.07906003  1
  Ag  Ag35  1  0.75312567  0.75056493  0.88875425  1
  Tl  Tl36  1  0.74241602  0.26853999  0.87933129  1
  Hg  Hg37  1  0.24731097  0.58774602  0.03324121  1
  Tl  Tl38  1  0.26310176  0.59090847  0.58760023  1
  Eu  Eu39  1  0.76314157  0.76173043  0.39503789  1
