# generated using pymatgen
data_NaCaLaYbCePr2GdErHf2UPaTiAl3TlPSCl2O19F21
_symmetry_space_group_name_H-M   'P 1'
_cell_length_a   5.06651592
_cell_length_b   6.96818829
_cell_length_c   9.07620811
_cell_angle_alpha   103.01397705
_cell_angle_beta   93.83329773
_cell_angle_gamma   96.98336029
_symmetry_Int_Tables_number   1
_chemical_formula_structural
NaCaLaYbCePr2GdErHf2UPaTiAl3TlPSCl2O19F21
_chemical_formula_sum
;
Na1 Ca1 La1 Yb1 Ce1 Pr2 Gd1 Er1 Hf2 U1 Pa1 Ti1 Al3 Tl1 P1 S1 Cl2 O19
F21
;
_cell_volume   308.40955817
_cell_formula_units_Z   1
loop_
 _symmetry_equiv_pos_site_id
 _symmetry_equiv_pos_as_xyz
  1  'x, y, z'
loop_
 _atom_site_type_symbol
 _atom_site_label
 _atom_site_symmetry_multiplicity
 _atom_site_fract_x
 _atom_site_fract_y
 _atom_site_fract_z
 _atom_site_occupancy
  O  O0  1  0.05237826  0.33983764  0.36567327  1
  O  O1  1  0.96827108  0.83907539  0.37665296  1
  Hf  Hf2  1  0.79692650  0.50146294  0.29248548  1
  S  S3  1  0.99883562  0.57065320  0.04734804  1
  O  O4  1  0.61886162  0.00454855  0.78197432  1
  U  U5  1  0.79295319  0.98070687  0.56907690  1
  Er  Er6  1  0.30506575  0.46605989  0.57862794  1
  O  O7  1  0.07336675  0.01574971  0.99024981  1
  O  O8  1  0.07849286  0.22333089  0.67424709  1
  Hf  Hf9  1  0.82680100  0.78354549  0.86475164  1
  O  O10  1  0.56088793  0.65211076  0.46292350  1
  O  O11  1  0.53016061  0.28776145  0.16937673  1
  O  O12  1  0.53766096  0.54466236  0.78984410  1
  O  O13  1  0.01591008  0.72361118  0.67441541  1
  O  O14  1  0.51840168  0.15939648  0.47751498  1
  La  La15  1  0.37009031  0.27898893  0.91974336  1
  Pr  Pr16  1  0.23385668  0.02152988  0.23682815  1
  F  F17  1  0.42298263  0.60979217  0.56568903  1
  Al  Al18  1  0.54508412  0.44289544  0.68133241  1
  Al  Al19  1  0.13903227  0.61287308  0.44590899  1
  F  F20  1  0.33830696  0.59454620  0.81534880  1
  F  F21  1  0.83694434  0.42579332  0.55182922  1
  Tl  Tl22  1  0.31941739  0.01560524  0.94603968  1
  F  F23  1  0.46226859  0.41411221  0.10454945  1
  F  F24  1  0.27329588  0.02601047  0.55623972  1
  F  F25  1  0.91397917  0.79148126  0.76463723  1
  F  F26  1  0.52592301  0.92860615  0.12581533  1
  F  F27  1  0.98281562  0.19434017  0.32712275  1
  F  F28  1  0.96923804  0.78985381  0.07781752  1
  F  F29  1  0.45006442  0.74416131  0.34111807  1
  F  F30  1  0.57533526  0.23251839  0.78734428  1
  Al  Al31  1  0.72379947  0.79430532  0.21363786  1
  F  F32  1  0.92010498  0.19501549  0.95751929  1
  F  F33  1  0.90265238  0.65819198  0.32475388  1
  O  O34  1  0.43857217  0.14568998  0.24169657  1
  O  O35  1  0.93523240  0.65232539  0.24390617  1
  O  O36  1  0.44401029  0.64714772  0.73989385  1
  Pa  Pa37  1  0.94219351  0.14849000  0.73324406  1
  O  O38  1  0.37804979  0.27452961  0.15624630  1
  F  F39  1  0.62875938  0.69930607  0.28084624  1
  O  O40  1  0.25019810  0.94132793  0.90971607  1
  Na  Na41  1  0.64876366  0.72729576  0.93990904  1
  O  O42  1  0.00741228  0.48770663  0.51164180  1
  O  O43  1  0.04392410  0.46397284  0.92753106  1
  F  F44  1  0.30284408  0.95163763  0.51856482  1
  Ca  Ca45  1  0.18414415  0.70395797  0.24971440  1
  Ti  Ti46  1  0.13608539  0.67944139  0.69234717  1
  F  F47  1  0.46647578  0.46996155  0.67921472  1
  Gd  Gd48  1  0.66534173  0.22178879  0.41849887  1
  F  F49  1  0.84364331  0.94368082  0.67538983  1
  O  O50  1  0.95015001  0.10200223  0.17092656  1
  P  P51  1  0.15495725  0.19123508  0.03684471  1
  Ce  Ce52  1  0.50696635  0.72887659  0.81899863  1
  F  F53  1  0.34857008  0.38326228  0.50482839  1
  F  F54  1  0.50762111  0.26750138  0.82802927  1
  Cl  Cl55  1  0.68622482  0.12959293  0.18399495  1
  F  F56  1  0.66682184  0.61545146  0.12798575  1
  Cl  Cl57  1  0.32790798  0.84438026  0.46613383  1
  F  F58  1  0.00714014  0.99917853  0.83194864  1
  Pr  Pr59  1  0.15779269  0.40211406  0.10751720  1
  Yb  Yb60  1  0.89131272  0.19864571  0.59348917  1
  O  O61  1  0.01773883  0.54702944  0.82870305  1
