# generated using pymatgen
data_CaCe4YTh2UTaTi4Al2ZnSiP4O39F2
_symmetry_space_group_name_H-M   'P 1'
_cell_length_a   4.49266720
_cell_length_b   7.58594275
_cell_length_c   7.73077059
_cell_angle_alpha   112.31594086
_cell_angle_beta   90.32151031
_cell_angle_gamma   103.39410400
_symmetry_Int_Tables_number   1
_chemical_formula_structural   CaCe4YTh2UTaTi4Al2ZnSiP4O39F2
_chemical_formula_sum
'Ca1 Ce4 Y1 Th2 U1 Ta1 Ti4 Al2 Zn1 Si1 P4 O39 F2'
_cell_volume   235.82526682
_cell_formula_units_Z   1
loop_
 _symmetry_equiv_pos_site_id
 _symmetry_equiv_pos_as_xyz
  1  'x, y, z'
loop_
 _atom_site_type_symbol
 _atom_site_label
 _atom_site_symmetry_multiplicity
 _atom_site_fract_x
 _atom_site_fract_y
 _atom_site_fract_z
 _atom_site_occupancy
  P  P0  1  0.46933353  0.29383337  0.64812458  1
  O  O1  1  0.14415471  0.57666123  0.47085923  1
  P  P2  1  0.38945466  0.68311882  0.62928313  1
  F  F3  1  0.00344428  0.35901016  0.06080119  1
  O  O4  1  0.73643124  0.26118904  0.57896662  1
  Ce  Ce5  1  0.93416858  0.24459402  0.29907823  1
  O  O6  1  0.27863827  0.83944023  0.80033720  1
  O  O7  1  0.46563381  0.53163105  0.72215676  1
  O  O8  1  0.19138673  0.14502063  0.51674509  1
  O  O9  1  0.06417812  0.02661869  0.05233762  1
  O  O10  1  0.53602535  0.93233037  0.15745911  1
  Ca  Ca11  1  0.52806002  0.57073689  0.08713338  1
  Ce  Ce12  1  0.94062549  0.10606005  0.77405286  1
  O  O13  1  0.47100246  0.26320654  0.83744371  1
  O  O14  1  0.03309793  0.69400525  0.03703763  1
  P  P15  1  0.22691806  0.87434250  0.02633911  1
  O  O16  1  0.65275168  0.81032419  0.59837574  1
  F  F17  1  0.50972342  0.36545750  0.26434362  1
  O  O18  1  0.72474331  0.85667711  0.91474527  1
  Ti  Ti19  1  0.22226904  0.35005301  0.41784388  1
  Zn  Zn20  1  0.71719784  0.35683429  0.92426014  1
  Ti  Ti21  1  0.72603518  0.85767794  0.41960266  1
  Ti  Ti22  1  0.21811654  0.84962755  0.92354816  1
  O  O23  1  0.22096194  0.85211384  0.42697713  1
  O  O24  1  0.21844365  0.35209504  0.91345823  1
  O  O25  1  0.72378802  0.34968266  0.42142206  1
  O  O26  1  0.43774194  0.03602565  0.71409595  1
  U  U27  1  0.06331921  0.68225557  0.59436142  1
  Th  Th28  1  0.55017185  0.13493386  0.49154061  1
  O  O29  1  0.24443062  0.14494546  0.23688942  1
  O  O30  1  0.65037167  0.80736166  0.23801190  1
  O  O31  1  0.24416980  0.87725323  0.90284288  1
  Th  Th32  1  0.92639172  0.75510579  0.04518305  1
  O  O33  1  0.55766147  0.33846384  0.01817986  1
  Ta  Ta34  1  0.40903682  0.48742121  0.22670014  1
  O  O35  1  0.82222623  0.50640833  0.71782839  1
  O  O36  1  0.73035312  0.43659213  0.38052633  1
  O  O37  1  0.88896966  0.97108942  0.61344165  1
  O  O38  1  0.12892225  0.48432535  0.06620181  1
  O  O39  1  0.25486174  0.39924958  0.58242559  1
  O  O40  1  0.71534091  0.97450840  0.94568145  1
  P  P41  1  0.50042081  0.06525458  0.90000403  1
  O  O42  1  0.28041703  0.70812273  0.39682284  1
  O  O43  1  0.16646278  0.03454847  0.97314912  1
  O  O44  1  0.56228393  0.13948165  0.78948843  1
  O  O45  1  0.23054484  0.79720157  0.28575301  1
  O  O46  1  0.66992050  0.72900331  0.97121787  1
  O  O47  1  0.91518039  0.27137613  0.29032576  1
  O  O48  1  0.81401575  0.85824955  0.47011930  1
  Ce  Ce49  1  0.25540459  0.72455913  0.63879114  1
  O  O50  1  0.09489702  0.44739729  0.79194844  1
  Ce  Ce51  1  0.49599978  0.45832330  0.13168573  1
  Ti  Ti52  1  0.74900419  0.21077053  0.62179911  1
  O  O53  1  0.50319427  0.39281163  0.47066408  1
  Si  Si54  1  0.99668729  0.95844859  0.13461584  1
  O  O55  1  0.97695363  0.05413657  0.25583735  1
  Y  Y56  1  0.47726884  0.55318898  0.75818813  1
  O  O57  1  0.46881595  0.05983219  0.95102966  1
  O  O58  1  0.97965175  0.54611742  0.56728667  1
  O  O59  1  0.98162067  0.55070662  0.94738501  1
  Al  Al60  1  0.97650999  0.05501911  0.03440694  1
  O  O61  1  0.47307423  0.05453170  0.57096797  1
  Al  Al62  1  0.97898096  0.04555126  0.48533288  1
