# generated using pymatgen
data_Ca3Ce4EuDyYU2Ti3Al3Zn2SiP2(O9F)4
_symmetry_space_group_name_H-M   'P 1'
_cell_length_a   4.49266720
_cell_length_b   7.58594275
_cell_length_c   7.73077059
_cell_angle_alpha   112.31594086
_cell_angle_beta   90.32151031
_cell_angle_gamma   103.39410400
_symmetry_Int_Tables_number   1
_chemical_formula_structural   Ca3Ce4EuDyYU2Ti3Al3Zn2SiP2(O9F)4
_chemical_formula_sum
'Ca3 Ce4 Eu1 Dy1 Y1 U2 Ti3 Al3 Zn2 Si1 P2 O36 F4'
_cell_volume   235.82526682
_cell_formula_units_Z   1
loop_
 _symmetry_equiv_pos_site_id
 _symmetry_equiv_pos_as_xyz
  1  'x, y, z'
loop_
 _atom_site_type_symbol
 _atom_site_label
 _atom_site_symmetry_multiplicity
 _atom_site_fract_x
 _atom_site_fract_y
 _atom_site_fract_z
 _atom_site_occupancy
  Ce  Ce0  1  0.65470546  0.52546293  0.59143913  1
  P  P1  1  0.11474316  0.34985048  0.26704925  1
  Ce  Ce2  1  0.39483470  0.02809383  0.01294329  1
  F  F3  1  0.46374363  0.66738194  0.86759919  1
  F  F4  1  0.04104405  0.81892902  0.75819921  1
  O  O5  1  0.45007980  0.32174045  0.27779388  1
  Ca  Ca6  1  0.25021636  0.82555604  0.46284640  1
  F  F7  1  0.21988839  0.80445731  0.14636800  1
  Al  Al8  1  0.21438575  0.52889156  0.98769063  1
  O  O9  1  0.07979494  0.48419753  0.17157753  1
  O  O10  1  0.09458178  0.47233993  0.47047007  1
  O  O11  1  0.63025916  0.05240258  0.77129734  1
  O  O12  1  0.90989941  0.11931821  0.14583765  1
  P  P13  1  0.57637644  0.24037029  0.76717860  1
  O  O14  1  0.37168896  0.30667621  0.91359794  1
  O  O15  1  0.41620004  0.19684947  0.58113092  1
  F  F16  1  0.72253579  0.74713486  0.44881916  1
  O  O17  1  0.88133180  0.43097135  0.81586039  1
  Zn  Zn18  1  0.81330210  0.42809036  0.07800721  1
  Ti  Ti19  1  0.80630189  0.93206632  0.57670283  1
  Ti  Ti20  1  0.30784154  0.92985088  0.08002990  1
  O  O21  1  0.05768311  0.68864745  0.81898928  1
  O  O22  1  0.55891144  0.17501228  0.82575536  1
  O  O23  1  0.55277038  0.69408637  0.32125080  1
  Zn  Zn24  1  0.30875280  0.42291602  0.57346487  1
  O  O25  1  0.05924674  0.17966869  0.32864654  1
  U  U26  1  0.94461060  0.55650902  0.45429510  1
  Eu  Eu27  1  0.27913147  0.23806782  0.11062257  1
  Ca  Ca28  1  0.64929879  0.85403252  0.74520594  1
  O  O29  1  0.96225494  0.26973134  0.89465195  1
  U  U30  1  0.77318710  0.53491962  0.02397163  1
  O  O31  1  0.79147017  0.89465547  0.54099250  1
  O  O32  1  0.57370168  0.64725840  0.18596290  1
  O  O33  1  0.18315050  0.28766492  0.47273338  1
  O  O34  1  0.51945561  0.58145690  0.84452140  1
  Dy  Dy35  1  0.15714982  0.23755224  0.69653165  1
  O  O36  1  0.04575555  0.51156944  0.23588210  1
  Ca  Ca37  1  0.40364575  0.93828404  0.35972732  1
  O  O38  1  0.92329651  0.55334377  0.67300040  1
  O  O39  1  0.05121681  0.86289835  0.09982461  1
  O  O40  1  0.62642723  0.26270580  0.31849486  1
  O  O41  1  0.27162391  0.85950077  0.56793588  1
  O  O42  1  0.47758597  0.19170953  0.91087306  1
  O  O43  1  0.68422234  0.67742276  0.58267438  1
  Ti  Ti44  1  0.76360255  0.15667702  0.21946326  1
  O  O45  1  0.22769585  0.73768002  0.88503736  1
  O  O46  1  0.51111066  0.33747488  0.07121220  1
  O  O47  1  0.82841915  0.80683440  0.07977292  1
  O  O48  1  0.09804317  0.38815594  0.38918692  1
  Si  Si49  1  0.99698985  0.90031213  0.73516101  1
  O  O50  1  0.90981817  0.21205571  0.89602333  1
  O  O51  1  0.17520019  0.98150629  0.58589011  1
  O  O52  1  0.57265031  0.09294017  0.38855007  1
  Ce  Ce53  1  0.49592298  0.40426832  0.73207563  1
  Ce  Ce54  1  0.26330715  0.66944879  0.24051753  1
  Al  Al55  1  0.15063162  0.26361895  0.13396774  1
  O  O56  1  0.16975845  0.76589698  0.21768092  1
  O  O57  1  0.16653985  0.26618764  0.90446949  1
  O  O58  1  0.66309303  0.26075166  0.21817860  1
  Y  Y59  1  0.66457039  0.76781690  0.40587476  1
  O  O60  1  0.16025256  0.76186329  0.59720284  1
  O  O61  1  0.65228623  0.26329482  0.60040522  1
  Al  Al62  1  0.15111503  0.27204931  0.68332255  1
