# generated using pymatgen
data_CsK5SrLiCaDy4Tm2ZrSc2UInPBr6O13F20
_symmetry_space_group_name_H-M   'P 1'
_cell_length_a   6.07587099
_cell_length_b   5.94029474
_cell_length_c   6.20144558
_cell_angle_alpha   84.00587463
_cell_angle_beta   70.00710297
_cell_angle_gamma   71.27500916
_symmetry_Int_Tables_number   1
_chemical_formula_structural   CsK5SrLiCaDy4Tm2ZrSc2UInPBr6O13F20
_chemical_formula_sum
'Cs1 K5 Sr1 Li1 Ca1 Dy4 Tm2 Zr1 Sc2 U1 In1 P1 Br6 O13 F20'
_cell_volume   199.19999499
_cell_formula_units_Z   1
loop_
 _symmetry_equiv_pos_site_id
 _symmetry_equiv_pos_as_xyz
  1  'x, y, z'
loop_
 _atom_site_type_symbol
 _atom_site_label
 _atom_site_symmetry_multiplicity
 _atom_site_fract_x
 _atom_site_fract_y
 _atom_site_fract_z
 _atom_site_occupancy
  F  F0  1  0.87531048  0.57994395  0.62103218  1
  Cs  Cs1  1  0.46821555  0.43796378  0.46395665  1
  P  P2  1  0.79822606  0.85276163  0.65726793  1
  F  F3  1  0.99974686  0.25576037  0.09157254  1
  U  U4  1  0.16169840  0.93262267  0.04877777  1
  F  F5  1  0.31552762  0.60161841  0.01057363  1
  F  F6  1  0.37656164  0.96125680  0.26744348  1
  O  O7  1  0.89311773  0.91928363  0.39082968  1
  O  O8  1  0.93999672  0.90315288  0.81515735  1
  O  O9  1  0.50155956  0.95738566  0.76054752  1
  F  F10  1  0.97887290  0.34849522  0.60441709  1
  F  F11  1  0.97627902  0.83911401  0.11736298  1
  Ca  Ca12  1  0.21998122  0.59462935  0.36390591  1
  K  K13  1  0.46988097  0.84183806  0.61169297  1
  Sr  Sr14  1  0.71988934  0.09076530  0.86540329  1
  F  F15  1  0.46125919  0.35233596  0.11876288  1
  F  F16  1  0.97261000  0.83673936  0.60660994  1
  K  K17  1  0.96845412  0.34272510  0.11136255  1
  F  F18  1  0.46411926  0.83914256  0.11870167  1
  F  F19  1  0.46246839  0.35438612  0.60980189  1
  O  O20  1  0.26868671  0.02730009  0.41702130  1
  O  O21  1  0.53302413  0.44354656  0.53385293  1
  F  F22  1  0.86999559  0.52538323  0.77115226  1
  O  O23  1  0.97739261  0.00398833  0.08914804  1
  Zr  Zr24  1  0.13864511  0.71683234  0.10613976  1
  Dy  Dy25  1  0.32508692  0.70525575  0.60432345  1
  O  O26  1  0.19246203  0.79944366  0.84755766  1
  O  O27  1  0.63762373  0.73699909  0.07074288  1
  Dy  Dy28  1  0.12463948  0.35448581  0.42729419  1
  O  O29  1  0.72268051  0.27325219  0.29449487  1
  O  O30  1  0.04012498  0.68575257  0.36436719  1
  Dy  Dy31  1  0.85830641  0.31703445  0.01094095  1
  In  In32  1  0.80564976  0.99259937  0.35697532  1
  O  O33  1  0.75040972  0.85946244  0.61332130  1
  O  O34  1  0.22166745  0.45766273  0.12658873  1
  Dy  Dy35  1  0.58982128  0.98230970  0.83968979  1
  O  O36  1  0.44102588  0.22874001  0.92680007  1
  F  F37  1  0.05927547  0.16714682  0.70548487  1
  Sc  Sc38  1  0.43740976  0.80739874  0.52248204  1
  K  K39  1  0.08060764  0.98960280  0.14509359  1
  F  F40  1  0.01911304  0.39699805  0.87227225  1
  F  F41  1  0.47759083  0.57374215  0.67968827  1
  Li  Li42  1  0.73437291  0.40585524  0.32300943  1
  F  F43  1  0.54758680  0.72147554  0.02125277  1
  F  F44  1  0.43351912  0.07488161  0.72184885  1
  F  F45  1  0.56474626  0.07711127  0.38599789  1
  F  F46  1  0.28492630  0.50251472  0.33661944  1
  F  F47  1  0.91511190  0.75973314  0.48972225  1
  F  F48  1  0.60303462  0.27141985  0.07843930  1
  Sc  Sc49  1  0.52298027  0.41044813  0.87372667  1
  Br  Br50  1  0.68430710  0.36075011  0.78996003  1
  Tm  Tm51  1  0.68126404  0.54368186  0.47550040  1
  K  K52  1  0.18125160  0.53961569  0.97911876  1
  Br  Br53  1  0.68350381  0.85335499  0.66080105  1
  Tm  Tm54  1  0.67775005  0.04324920  0.97581100  1
  Br  Br55  1  0.18166345  0.54095274  0.47171259  1
  Br  Br56  1  0.67381209  0.23047061  0.28140181  1
  Br  Br57  1  0.18371281  0.04163644  0.97154188  1
  Br  Br58  1  0.67536086  0.72951299  0.15484649  1
  K  K59  1  0.17600511  0.04433746  0.47612205  1
