# generated using pymatgen
data_BaLaYb2HoTmHf2ThUPaTi3NbAl2TlCdPCl2(O5F3)5
_symmetry_space_group_name_H-M   'P 1'
_cell_length_a   5.06651592
_cell_length_b   6.96818829
_cell_length_c   9.07620811
_cell_angle_alpha   103.01397705
_cell_angle_beta   93.83329773
_cell_angle_gamma   96.98336029
_symmetry_Int_Tables_number   1
_chemical_formula_structural
BaLaYb2HoTmHf2ThUPaTi3NbAl2TlCdPCl2(O5F3)5
_chemical_formula_sum
'Ba1 La1 Yb2 Ho1 Tm1 Hf2 Th1 U1 Pa1 Ti3 Nb1 Al2 Tl1 Cd1 P1 Cl2 O25 F15'
_cell_volume   308.40955817
_cell_formula_units_Z   1
loop_
 _symmetry_equiv_pos_site_id
 _symmetry_equiv_pos_as_xyz
  1  'x, y, z'
loop_
 _atom_site_type_symbol
 _atom_site_label
 _atom_site_symmetry_multiplicity
 _atom_site_fract_x
 _atom_site_fract_y
 _atom_site_fract_z
 _atom_site_occupancy
  Hf  Hf0  1  0.72586012  0.96822733  0.41467708  1
  O  O1  1  0.55067563  0.81577498  0.93185085  1
  O  O2  1  0.34075919  0.60306078  0.60775012  1
  O  O3  1  0.93324143  0.87361419  0.58827811  1
  Ba  Ba4  1  0.75009346  0.53407609  0.73003513  1
  Hf  Hf5  1  0.79691344  0.10577399  0.04483917  1
  O  O6  1  0.88912189  0.28184754  0.48064104  1
  O  O7  1  0.06255126  0.38418049  0.15027905  1
  O  O8  1  0.60976821  0.20907979  0.87689030  1
  O  O9  1  0.98470056  0.97078961  0.24281511  1
  Th  Th10  1  0.26364115  0.33584967  0.37800384  1
  O  O11  1  0.53796315  0.10808531  0.21749315  1
  U  U12  1  0.31640929  0.93847197  0.73442578  1
  La  La13  1  0.26942146  0.75040990  0.11121799  1
  O  O14  1  0.42947805  0.08760688  0.53162885  1
  O  O15  1  0.51519126  0.66860360  0.31717819  1
  O  O16  1  0.07609990  0.94249642  0.92601240  1
  Al  Al17  1  0.20066819  0.70633852  0.82836223  1
  F  F18  1  0.72799248  0.95952207  0.57631314  1
  Tl  Tl19  1  0.79502505  0.50878412  0.44421428  1
  F  F20  1  0.88294280  0.58063161  0.89843822  1
  F  F21  1  0.40133351  0.18432014  0.61271352  1
  F  F22  1  0.54889280  0.12207949  0.21067619  1
  Al  Al23  1  0.07112810  0.13261694  0.22357644  1
  O  O24  1  0.94559222  0.49352613  0.70103949  1
  F  F25  1  0.26062799  0.48519397  0.29469883  1
  O  O26  1  0.53439248  0.89594918  0.76029927  1
  F  F27  1  0.43810624  0.83720678  0.96613854  1
  F  F28  1  0.07350568  0.26783979  0.09057877  1
  Cd  Cd29  1  0.57393670  0.38671666  0.02420503  1
  F  F30  1  0.86896873  0.75705206  0.15971346  1
  P  P31  1  0.65726513  0.14366335  0.66866744  1
  F  F32  1  0.22148329  0.22425690  0.84928799  1
  F  F33  1  0.02989270  0.00322409  0.35107595  1
  O  O34  1  0.13110377  0.58639109  0.75413483  1
  Pa  Pa35  1  0.13111480  0.09271365  0.25219578  1
  O  O36  1  0.63380200  0.09427612  0.74879533  1
  O  O37  1  0.63133329  0.59386444  0.25074208  1
  F  F38  1  0.24613608  0.49417257  0.70421028  1
  F  F39  1  0.48984614  0.75212181  0.20565246  1
  Ti  Ti40  1  0.95962495  0.73435289  0.65751803  1
  F  F41  1  0.19698875  0.94400859  0.89245754  1
  Ti  Ti42  1  0.53787619  0.25603268  0.75788522  1
  F  F43  1  0.99587107  0.24637394  0.21115535  1
  O  O44  1  0.99159878  0.74678558  0.32442042  1
  Nb  Nb45  1  0.74226624  0.49783891  0.20944421  1
  O  O46  1  0.69100595  0.45200634  0.52273673  1
  Ti  Ti47  1  0.24379876  0.99501556  0.20766556  1
  O  O48  1  0.79346865  0.53315002  0.90227616  1
  O  O49  1  0.49133626  0.24510154  0.09337050  1
  O  O50  1  0.74530756  0.99867839  0.70904750  1
  F  F51  1  0.29065731  0.04612753  0.52194512  1
  Cl  Cl52  1  0.77059484  0.22415932  0.17673779  1
  Cl  Cl53  1  0.26302558  0.71473116  0.17587203  1
  Tm  Tm54  1  0.11038683  0.23112243  0.86667711  1
  Yb  Yb55  1  0.42251992  0.20504719  0.47991359  1
  O  O56  1  0.08708431  0.87624419  0.80497515  1
  O  O57  1  0.59005672  0.35945717  0.80590510  1
  O  O58  1  0.44317621  0.57169187  0.54378664  1
  O  O59  1  0.94659859  0.06986935  0.55109024  1
  Yb  Yb60  1  0.61485064  0.73383296  0.87244725  1
  Ho  Ho61  1  0.92487890  0.70580345  0.48479688  1
