# generated using pymatgen
data_Li2Ca2PmGdMg2Ti6Tl4Cd2Co5CuAg5Sb6RuPb2
_symmetry_space_group_name_H-M   'P 1'
_cell_length_a   4.53447056
_cell_length_b   6.23771715
_cell_length_c   6.96270227
_cell_angle_alpha   84.41940308
_cell_angle_beta   78.29293823
_cell_angle_gamma   77.43684387
_symmetry_Int_Tables_number   1
_chemical_formula_structural   Li2Ca2PmGdMg2Ti6Tl4Cd2Co5CuAg5Sb6RuPb2
_chemical_formula_sum
'Li2 Ca2 Pm1 Gd1 Mg2 Ti6 Tl4 Cd2 Co5 Cu1 Ag5 Sb6 Ru1 Pb2'
_cell_volume   187.93343918
_cell_formula_units_Z   1
loop_
 _symmetry_equiv_pos_site_id
 _symmetry_equiv_pos_as_xyz
  1  'x, y, z'
loop_
 _atom_site_type_symbol
 _atom_site_label
 _atom_site_symmetry_multiplicity
 _atom_site_fract_x
 _atom_site_fract_y
 _atom_site_fract_z
 _atom_site_occupancy
  Ag  Ag0  1  0.68441451  0.58012730  0.88703889  1
  Mg  Mg1  1  0.05825996  0.84341401  0.79914486  1
  Pb  Pb2  1  0.92499560  0.10147128  0.39537585  1
  Mg  Mg3  1  0.50141048  0.94859797  0.10779536  1
  Pb  Pb4  1  0.63940006  0.68294674  0.50374138  1
  Cu  Cu5  1  0.87383717  0.19721569  0.01843290  1
  Gd  Gd6  1  0.33511236  0.27400675  0.70455074  1
  Pm  Pm7  1  0.22651266  0.49910241  0.20356457  1
  Sb  Sb8  1  0.42641649  0.49524653  0.13747360  1
  Li  Li9  1  0.84686399  0.96429729  0.96553165  1
  Li  Li10  1  0.17110701  0.53715503  0.62627310  1
  Sb  Sb11  1  0.57397771  0.00404766  0.44322911  1
  Ti  Ti12  1  0.98929322  0.18218978  0.48186511  1
  Ti  Ti13  1  0.64756334  0.51191443  0.81465542  1
  Co  Co14  1  0.98234057  0.17710216  0.23466007  1
  Ti  Ti15  1  0.33011949  0.85417765  0.64617544  1
  Ti  Ti16  1  0.98310840  0.18838391  0.98435009  1
  Ru  Ru17  1  0.31731200  0.84485400  0.89971626  1
  Ti  Ti18  1  0.64967525  0.51348817  0.31542781  1
  Ti  Ti19  1  0.32095867  0.84739131  0.15098895  1
  Co  Co20  1  0.98751348  0.18251856  0.73380387  1
  Co  Co21  1  0.64494962  0.50850588  0.06839025  1
  Co  Co22  1  0.32071373  0.85177356  0.39664528  1
  Co  Co23  1  0.64896578  0.51822776  0.56454170  1
  Sb  Sb24  1  0.52372116  0.36583632  0.73182988  1
  Cd  Cd25  1  0.68827170  0.88085902  0.73082972  1
  Sb  Sb26  1  0.01539743  0.38764310  0.46443257  1
  Cd  Cd27  1  0.18758270  0.88048106  0.47079530  1
  Ag  Ag28  1  0.52288908  0.37575537  0.22452348  1
  Sb  Sb29  1  0.18782228  0.88912612  0.97218663  1
  Ag  Ag30  1  0.02374800  0.38167566  0.97406834  1
  Sb  Sb31  1  0.69608098  0.86384737  0.22706607  1
  Tl  Tl32  1  0.89820743  0.59360039  0.08533096  1
  Ca  Ca33  1  0.39521489  0.75032759  0.89806974  1
  Ag  Ag34  1  0.89444280  0.09741864  0.06887297  1
  Tl  Tl35  1  0.88711125  0.59879094  0.56560588  1
  Ag  Ag36  1  0.38672999  0.74266654  0.39155880  1
  Tl  Tl37  1  0.38983259  0.24900475  0.90805978  1
  Ca  Ca38  1  0.88815182  0.08913592  0.56442559  1
  Tl  Tl39  1  0.38628390  0.25582623  0.38468772  1
