# generated using pymatgen
data_Rb2BaNa2AcLaMg2ScMn2Tl2Fe2SiNi2HgN
_symmetry_space_group_name_H-M   'P 1'
_cell_length_a   3.56896901
_cell_length_b   5.67572832
_cell_length_c   6.40948486
_cell_angle_alpha   91.83692169
_cell_angle_beta   90.69073486
_cell_angle_gamma   92.64938354
_symmetry_Int_Tables_number   1
_chemical_formula_structural   Rb2BaNa2AcLaMg2ScMn2Tl2Fe2SiNi2HgN
_chemical_formula_sum
'Rb2 Ba1 Na2 La1 Ac1 Mg2 Sc1 Mn2 Tl2 Fe2 Si1 Ni2 Hg1 N1'
_cell_volume   129.61637706
_cell_formula_units_Z   1
loop_
 _symmetry_equiv_pos_site_id
 _symmetry_equiv_pos_as_xyz
  1  'x, y, z'
loop_
 _atom_site_type_symbol
 _atom_site_label
 _atom_site_symmetry_multiplicity
 _atom_site_fract_x
 _atom_site_fract_y
 _atom_site_fract_z
 _atom_site_occupancy
  Fe  Fe0  1  0.70732921  0.74370879  0.81144977  1
  Mg  Mg1  1  0.20884597  0.97379231  0.07079998  1
  La  La2  1  0.71371418  0.47586665  0.31348830  1
  Si  Si3  1  0.21996354  0.47598958  0.80914932  1
  Fe  Fe4  1  0.71583569  0.19989116  0.81712663  1
  Mg  Mg5  1  0.21038224  0.97368252  0.56106883  1
  Ba  Ba6  1  0.72250706  0.06244142  0.93005466  1
  Na  Na7  1  0.21785855  0.06226813  0.42448053  1
  Mn  Mn8  1  0.21646473  0.56525987  0.71867883  1
  N  N9  1  0.21320561  0.56463706  0.43165243  1
  Mn  Mn10  1  0.21627288  0.56338346  0.13445568  1
  Na  Na11  1  0.71288443  0.55835557  0.42366460  1
  Hg  Hg12  1  0.65320092  0.77050334  0.87835693  1
  Sc  Sc13  1  0.15851787  0.26634911  0.37406781  1
  Rb  Rb14  1  0.52493703  0.26866433  0.35909328  1
  Ni  Ni15  1  0.22859581  0.48869035  0.01088662  1
  Rb  Rb16  1  0.34085777  0.89760244  0.77704537  1
  Tl  Tl17  1  0.82215667  0.39912453  0.81529397  1
  Tl  Tl18  1  0.03816916  0.77120531  0.32867759  1
  Ni  Ni19  1  0.63557595  0.68222010  0.13636254  1
  Ac  Ac20  1  0.19746600  0.40333050  0.52534825  1
