# generated using pymatgen
data_CaYbEuMg8Sc4TaTi2Be2TlZn2HgC2
_symmetry_space_group_name_H-M   'P 1'
_cell_length_a   4.88512754
_cell_length_b   6.39535809
_cell_length_c   6.57602072
_cell_angle_alpha   112.87458038
_cell_angle_beta   89.61576843
_cell_angle_gamma   91.39128113
_symmetry_Int_Tables_number   1
_chemical_formula_structural   CaYbEuMg8Sc4TaTi2Be2TlZn2HgC2
_chemical_formula_sum
'Ca1 Yb1 Eu1 Mg8 Sc4 Ta1 Ti2 Be2 Tl1 Zn2 Hg1 C2'
_cell_volume   189.23539618
_cell_formula_units_Z   1
loop_
 _symmetry_equiv_pos_site_id
 _symmetry_equiv_pos_as_xyz
  1  'x, y, z'
loop_
 _atom_site_type_symbol
 _atom_site_label
 _atom_site_symmetry_multiplicity
 _atom_site_fract_x
 _atom_site_fract_y
 _atom_site_fract_z
 _atom_site_occupancy
  Mg  Mg0  1  0.16910356  0.23580210  0.57891107  1
  Mg  Mg1  1  0.16744319  0.73783284  0.07790852  1
  Mg  Mg2  1  0.67331678  0.90697300  0.91378713  1
  Mg  Mg3  1  0.16966474  0.23431081  0.08127189  1
  Mg  Mg4  1  0.66550630  0.40491456  0.91443497  1
  Mg  Mg5  1  0.67154205  0.90526164  0.40867764  1
  Mg  Mg6  1  0.17084557  0.73631954  0.58163238  1
  Mg  Mg7  1  0.66898960  0.40598118  0.40708840  1
  Sc  Sc8  1  0.09659930  0.61434186  0.32702887  1
  Sc  Sc9  1  0.79656619  0.06249826  0.74597013  1
  Sc  Sc10  1  0.51881462  0.03315015  0.16129333  1
  Sc  Sc11  1  0.79299217  0.58088660  0.73868817  1
  Zn  Zn12  1  0.41350183  0.43655592  0.98059607  1
  Zn  Zn13  1  0.18188263  0.20590273  0.50279099  1
  Eu  Eu14  1  0.85971338  0.25781485  0.89373803  1
  Ca  Ca15  1  0.36022201  0.75402141  0.39637858  1
  C  C16  1  0.36412555  0.75809914  0.89142394  1
  C  C17  1  0.86786956  0.25555590  0.39591777  1
  Hg  Hg18  1  0.57875955  0.89165360  0.15563565  1
  Ti  Ti19  1  0.07368088  0.40566394  0.65174866  1
  Ti  Ti20  1  0.32712853  0.65699601  0.89479566  1
  Ta  Ta21  1  0.82556486  0.14771460  0.41172889  1
  Be  Be22  1  0.01132174  0.42001140  0.14011167  1
  Be  Be23  1  0.50782365  0.42019039  0.13810045  1
  Yb  Yb24  1  0.50232124  0.75488496  0.80679500  1
  Tl  Tl25  1  0.01065539  0.08769206  0.47361219  1
