# generated using pymatgen
data_CsK2Rb2Eu2Dy4HoTmZrSc3TiAlPS6O15F19
_symmetry_space_group_name_H-M   'P 1'
_cell_length_a   6.07587099
_cell_length_b   5.94029474
_cell_length_c   6.20144558
_cell_angle_alpha   84.00587463
_cell_angle_beta   70.00710297
_cell_angle_gamma   71.27500916
_symmetry_Int_Tables_number   1
_chemical_formula_structural   CsK2Rb2Eu2Dy4HoTmZrSc3TiAlPS6O15F19
_chemical_formula_sum
'Cs1 Rb2 K2 Eu2 Dy4 Ho1 Tm1 Zr1 Sc3 Ti1 Al1 P1 S6 O15 F19'
_cell_volume   199.19999499
_cell_formula_units_Z   1
loop_
 _symmetry_equiv_pos_site_id
 _symmetry_equiv_pos_as_xyz
  1  'x, y, z'
loop_
 _atom_site_type_symbol
 _atom_site_label
 _atom_site_symmetry_multiplicity
 _atom_site_fract_x
 _atom_site_fract_y
 _atom_site_fract_z
 _atom_site_occupancy
  O  O0  1  0.09588569  0.50528103  0.28425783  1
  O  O1  1  0.68292713  0.90481496  0.31962922  1
  F  F2  1  0.57794929  0.21389359  0.03576578  1
  Al  Al3  1  0.41654643  0.23019223  0.31471384  1
  P  P4  1  0.77725458  0.62302071  0.40072531  1
  Cs  Cs5  1  0.10862159  0.79056436  0.81516218  1
  O  O6  1  0.71759146  0.65635890  0.64728904  1
  O  O7  1  0.62446129  0.44590273  0.34886774  1
  F  F8  1  0.22350767  0.01982090  0.28313091  1
  F  F9  1  0.27398804  0.24427712  0.61287171  1
  F  F10  1  0.89643115  0.43748522  0.93374431  1
  Rb  Rb11  1  0.90148461  0.93818426  0.42767447  1
  F  F12  1  0.39923754  0.93720561  0.93000138  1
  Eu  Eu13  1  0.14611664  0.18424411  0.68597430  1
  Eu  Eu14  1  0.65036297  0.68665552  0.17997900  1
  F  F15  1  0.39262143  0.44095981  0.43176171  1
  F  F16  1  0.90017772  0.44193536  0.42451453  1
  Rb  Rb17  1  0.39590245  0.43856505  0.92738241  1
  F  F18  1  0.40144652  0.93432021  0.43001527  1
  F  F19  1  0.89517897  0.94174016  0.93300390  1
  Dy  Dy20  1  0.13557678  0.16433379  0.90893668  1
  O  O21  1  0.53723061  0.37286583  0.92303139  1
  Ti  Ti22  1  0.61654186  0.41055962  0.64569432  1
  O  O23  1  0.31319308  0.91647768  0.81636453  1
  Dy  Dy24  1  0.51942456  0.76266110  0.34527344  1
  O  O25  1  0.02530848  0.25183609  0.16382994  1
  Dy  Dy26  1  0.87733841  0.91846204  0.63989520  1
  F  F27  1  0.61649716  0.99680638  0.09883605  1
  O  O28  1  0.99655020  0.79155070  0.40490362  1
  Dy  Dy29  1  0.49935549  0.27927348  0.24117607  1
  Zr  Zr30  1  0.41382077  0.64194918  0.91494346  1
  O  O31  1  0.43008783  0.03273024  0.45943230  1
  O  O32  1  0.11102601  0.38490278  0.67792320  1
  O  O33  1  0.65348804  0.42729974  0.42759860  1
  O  O34  1  0.69592643  0.15849347  0.73858613  1
  O  O35  1  0.91007215  0.67801744  0.88012147  1
  O  O36  1  0.49240550  0.65598828  0.64257330  1
  O  O37  1  0.39752036  0.60772979  0.15588777  1
  F  F38  1  0.38949034  0.59431434  0.77652466  1
  F  F39  1  0.88909984  0.76219589  0.60789436  1
  Sc  Sc40  1  0.89095247  0.25870806  0.11202424  1
  F  F41  1  0.88650233  0.92521393  0.94132727  1
  F  F42  1  0.88676494  0.26423514  0.60850179  1
  F  F43  1  0.38696867  0.25777704  0.11123037  1
  F  F44  1  0.89491200  0.09134147  0.27750570  1
  F  F45  1  0.89380050  0.59781748  0.27810672  1
  F  F46  1  0.39561042  0.92783314  0.44308823  1
  Sc  Sc47  1  0.88921082  0.92589813  0.44120663  1
  Sc  Sc48  1  0.89366716  0.59633887  0.77635950  1
  F  F49  1  0.88840485  0.42785695  0.94322348  1
  S  S50  1  0.73966616  0.89622325  0.90401524  1
  S  S51  1  0.11315607  0.17937499  0.64899266  1
  S  S52  1  0.74091190  0.90136600  0.41322055  1
  Ho  Ho53  1  0.62648761  0.15995082  0.64664352  1
  S  S54  1  0.13787647  0.11249320  0.15039365  1
  S  S55  1  0.51471120  0.39381537  0.90115690  1
  K  K56  1  0.30588174  0.74221194  0.64319831  1
  K  K57  1  0.94983047  0.55415833  0.16172931  1
  S  S58  1  0.51036084  0.40265515  0.37796485  1
  Tm  Tm59  1  0.62998241  0.13077033  0.14919317  1
