# generated using pymatgen
data_Li2Ca3Eu2GdMgTi3AlIn2Ga3Co2Cu2Ag4Sb6(RuAu)4
_symmetry_space_group_name_H-M   'P 1'
_cell_length_a   4.53447056
_cell_length_b   6.23771715
_cell_length_c   6.96270227
_cell_angle_alpha   84.41940308
_cell_angle_beta   78.29293823
_cell_angle_gamma   77.43684387
_symmetry_Int_Tables_number   1
_chemical_formula_structural
Li2Ca3Eu2GdMgTi3AlIn2Ga3Co2Cu2Ag4Sb6(RuAu)4
_chemical_formula_sum
'Li2 Ca3 Gd1 Eu2 Mg1 Ti3 Al1 In2 Ga3 Co2 Cu2 Ag4 Sb6 Ru4 Au4'
_cell_volume   187.93343918
_cell_formula_units_Z   1
loop_
 _symmetry_equiv_pos_site_id
 _symmetry_equiv_pos_as_xyz
  1  'x, y, z'
loop_
 _atom_site_type_symbol
 _atom_site_label
 _atom_site_symmetry_multiplicity
 _atom_site_fract_x
 _atom_site_fract_y
 _atom_site_fract_z
 _atom_site_occupancy
  Ag  Ag0  1  0.91205734  0.58598232  0.70319903  1
  Mg  Mg1  1  0.47209421  0.30139890  0.74578714  1
  Al  Al2  1  0.42097294  0.72059166  0.49300545  1
  Ag  Ag3  1  0.82949495  0.24287030  0.02273141  1
  Ag  Ag4  1  0.05540291  0.01622058  0.71192831  1
  Ag  Ag5  1  0.84041721  0.93083298  0.35385692  1
  Gd  Gd6  1  0.47560072  0.81064755  0.03083602  1
  Ca  Ca7  1  0.14668226  0.34900352  0.31267664  1
  Sb  Sb8  1  0.42548293  0.92878026  0.60706371  1
  Li  Li9  1  0.93672031  0.43715686  0.62534881  1
  Sb  Sb10  1  0.24490684  0.39482847  0.22611852  1
  Li  Li11  1  0.73471653  0.88914579  0.20550393  1
  Ru  Ru12  1  0.03916905  0.66733640  0.29869291  1
  Ti  Ti13  1  0.04066324  0.67106235  0.05077254  1
  Ru  Ru14  1  0.69754237  0.99936128  0.46439895  1
  Co  Co15  1  0.03994227  0.66818005  0.80284792  1
  Ga  Ga16  1  0.70548493  0.00154822  0.21214248  1
  Ru  Ru17  1  0.37331364  0.33740392  0.63539678  1
  Ga  Ga18  1  0.04042304  0.67158228  0.55221736  1
  Ti  Ti19  1  0.70994306  0.00005615  0.71845591  1
  Co  Co20  1  0.37595811  0.33828941  0.13343742  1
  Ti  Ti21  1  0.36641872  0.33726397  0.38027057  1
  Ru  Ru22  1  0.69979131  0.00007402  0.96792209  1
  Ga  Ga23  1  0.36753398  0.33432609  0.88213134  1
  Sb  Sb24  1  0.65735316  0.07536880  0.68053550  1
  Sb  Sb25  1  0.04425543  0.53261268  0.13615844  1
  Sb  Sb26  1  0.04260332  0.23725952  0.44569212  1
  Ca  Ca27  1  0.12521468  0.88614380  0.79394650  1
  Sb  Sb28  1  0.66187561  0.76095265  0.98190898  1
  Cu  Cu29  1  0.34758222  0.90741688  0.30922109  1
  Ca  Ca30  1  0.57378364  0.41808835  0.32888234  1
  Cu  Cu31  1  0.34643039  0.40276542  0.81168884  1
  In  In32  1  0.43421066  0.50161034  0.69076860  1
  Au  Au33  1  0.92713422  0.61279809  0.51355243  1
  In  In34  1  0.91113168  0.08086631  0.98336136  1
  Au  Au35  1  0.92292446  0.62076640  0.97892982  1
  Au  Au36  1  0.41443479  0.95989662  0.69412220  1
  Eu  Eu37  1  0.42041323  0.47726652  0.17535281  1
  Eu  Eu38  1  0.91381937  0.10004824  0.49828714  1
  Au  Au39  1  0.40954971  0.97309214  0.16476151  1
