# generated using pymatgen
data_Cs2K2Sr2EuDy3Tm2HfZr2Sc2Cu2Si2S6(O4F7)3
_symmetry_space_group_name_H-M   'P 1'
_cell_length_a   6.07587099
_cell_length_b   5.94029474
_cell_length_c   6.20144558
_cell_angle_alpha   84.00587463
_cell_angle_beta   70.00710297
_cell_angle_gamma   71.27500916
_symmetry_Int_Tables_number   1
_chemical_formula_structural
Cs2K2Sr2EuDy3Tm2HfZr2Sc2Cu2Si2S6(O4F7)3
_chemical_formula_sum
'Cs2 K2 Sr2 Eu1 Dy3 Tm2 Hf1 Zr2 Sc2 Si2 Cu2 S6 O12 F21'
_cell_volume   199.19999499
_cell_formula_units_Z   1
loop_
 _symmetry_equiv_pos_site_id
 _symmetry_equiv_pos_as_xyz
  1  'x, y, z'
loop_
 _atom_site_type_symbol
 _atom_site_label
 _atom_site_symmetry_multiplicity
 _atom_site_fract_x
 _atom_site_fract_y
 _atom_site_fract_z
 _atom_site_occupancy
  Cs  Cs0  1  0.26251012  0.19241244  0.55023199  1
  Si  Si1  1  0.76076502  0.45127687  0.41716266  1
  F  F2  1  0.97065145  0.33651593  0.16671956  1
  Si  Si3  1  0.75066596  0.94730020  0.69119906  1
  O  O4  1  0.76010376  0.69444591  0.54604220  1
  F  F5  1  0.98502839  0.83315307  0.74417913  1
  O  O6  1  0.76440853  0.19227977  0.54542202  1
  F  F7  1  0.54211974  0.05827292  0.93880695  1
  F  F8  1  0.52499801  0.57114750  0.35993475  1
  Cs  Cs9  1  0.25402591  0.69404572  0.04991935  1
  F  F10  1  0.83037555  0.09339256  0.90396869  1
  Eu  Eu11  1  0.46665609  0.27685267  0.08361524  1
  F  F12  1  0.62456322  0.42905670  0.24355015  1
  Sr  Sr13  1  0.22147967  0.92585647  0.71762359  1
  F  F14  1  0.34678799  0.10520855  0.90269238  1
  F  F15  1  0.54006779  0.56086338  0.74396437  1
  Sr  Sr16  1  0.82287127  0.57297975  0.38144171  1
  F  F17  1  0.53981078  0.93319124  0.36069727  1
  F  F18  1  0.14260525  0.25279790  0.41872752  1
  F  F19  1  0.13802519  0.60836363  0.05807087  1
  O  O20  1  0.92299914  0.72420949  0.04135050  1
  O  O21  1  0.53286773  0.46236753  0.01808458  1
  O  O22  1  0.61593705  0.50383550  0.57761633  1
  O  O23  1  0.35821962  0.68661845  0.31062278  1
  O  O24  1  0.99497932  0.78566843  0.53592926  1
  Dy  Dy25  1  0.12445107  0.46373251  0.51919788  1
  O  O26  1  0.02434441  0.32341501  0.31884333  1
  Zr  Zr27  1  0.38962841  0.76541853  0.07930696  1
  O  O28  1  0.07426035  0.49181733  0.78785539  1
  O  O29  1  0.56864262  0.02799083  0.39326084  1
  Zr  Zr30  1  0.07333972  0.03617564  0.37074402  1
  F  F31  1  0.00858566  0.13727337  0.61621189  1
  Cu  Cu32  1  0.57398582  0.48142922  0.79424584  1
  O  O33  1  0.18796092  0.04854622  0.13246298  1
  Cu  Cu34  1  0.59834516  0.75935698  0.46133676  1
  Dy  Dy35  1  0.97422802  0.83201057  0.77409154  1
  O  O36  1  0.44968200  0.85159904  0.84416932  1
  Dy  Dy37  1  0.05576366  0.37486255  0.05351804  1
  Sc  Sc38  1  0.78126276  0.59777719  0.68533206  1
  Sc  Sc39  1  0.77629805  0.26341787  0.01186604  1
  F  F40  1  0.78114623  0.60082501  0.18087777  1
  F  F41  1  0.27961272  0.26449361  0.01876016  1
  F  F42  1  0.27024958  0.93191242  0.34818423  1
  F  F43  1  0.77895552  0.43140176  0.84885800  1
  Hf  Hf44  1  0.77838767  0.92598999  0.34908092  1
  F  F45  1  0.78052944  0.10689300  0.18727711  1
  F  F46  1  0.77705497  0.76054662  0.51608098  1
  F  F47  1  0.26812160  0.59516132  0.68258303  1
  F  F48  1  0.77089083  0.26093590  0.51529968  1
  F  F49  1  0.78338581  0.93011582  0.84832805  1
  K  K50  1  0.77193511  0.58627790  0.68252784  1
  S  S51  1  0.27612457  0.84025145  0.93612385  1
  K  K52  1  0.77742726  0.08878148  0.17961654  1
  S  S53  1  0.27949199  0.34290954  0.93089008  1
  S  S54  1  0.27105764  0.34044147  0.42786127  1
  S  S55  1  0.27253699  0.84437764  0.43376428  1
  Tm  Tm56  1  0.27831066  0.08879130  0.68255377  1
  Tm  Tm57  1  0.27304876  0.58772385  0.18250600  1
  S  S58  1  0.77663487  0.59012723  0.17881799  1
  S  S59  1  0.76902974  0.08819465  0.68529010  1
