# generated using pymatgen
data_LiCaTbEu2Mg2Ti3Cd2InGa3Co2CuAg5Hg6(Sb3Ru2)2
_symmetry_space_group_name_H-M   'P 1'
_cell_length_a   4.53447056
_cell_length_b   6.23771715
_cell_length_c   6.96270227
_cell_angle_alpha   84.41940308
_cell_angle_beta   78.29293823
_cell_angle_gamma   77.43684387
_symmetry_Int_Tables_number   1
_chemical_formula_structural
LiCaTbEu2Mg2Ti3Cd2InGa3Co2CuAg5Hg6(Sb3Ru2)2
_chemical_formula_sum
'Li1 Ca1 Tb1 Eu2 Mg2 Ti3 Cd2 In1 Ga3 Co2 Cu1 Ag5 Hg6 Sb6 Ru4'
_cell_volume   187.93343918
_cell_formula_units_Z   1
loop_
 _symmetry_equiv_pos_site_id
 _symmetry_equiv_pos_as_xyz
  1  'x, y, z'
loop_
 _atom_site_type_symbol
 _atom_site_label
 _atom_site_symmetry_multiplicity
 _atom_site_fract_x
 _atom_site_fract_y
 _atom_site_fract_z
 _atom_site_occupancy
  Ca  Ca0  1  0.79468101  0.33979687  0.12310168  1
  Mg  Mg1  1  0.07748850  0.76846159  0.21146137  1
  Cu  Cu2  1  0.24712898  0.40127781  0.46085444  1
  Tb  Tb3  1  0.89530385  0.08961305  0.64815468  1
  Ag  Ag4  1  0.44500992  0.01773375  0.31304538  1
  Ag  Ag5  1  0.49925622  0.87987304  0.93434811  1
  Ag  Ag6  1  0.17812538  0.53621465  0.82480437  1
  Mg  Mg7  1  0.62965536  0.64411223  0.56471670  1
  In  In8  1  0.63382030  0.36266136  0.19527431  1
  Sb  Sb9  1  0.82135582  0.92208469  0.55041885  1
  Sb  Sb10  1  0.04295684  0.82316560  0.00380629  1
  Li  Li11  1  0.36572090  0.45081484  0.64976823  1
  Ru  Ru12  1  0.92764634  0.18096918  0.02625234  1
  Ru  Ru13  1  0.93373716  0.17627251  0.52213115  1
  Ga  Ga14  1  0.25928220  0.84475493  0.61003131  1
  Ga  Ga15  1  0.59535521  0.51055020  0.93920511  1
  Ti  Ti16  1  0.93148381  0.17800978  0.77693754  1
  Ti  Ti17  1  0.58935833  0.50462168  0.43910810  1
  Ti  Ti18  1  0.26259843  0.84699655  0.10766708  1
  Ru  Ru19  1  0.26848418  0.84471291  0.35729510  1
  Co  Co20  1  0.25886697  0.84677500  0.86127448  1
  Co  Co21  1  0.60274947  0.51684141  0.19447424  1
  Ru  Ru22  1  0.59579080  0.50875956  0.69142169  1
  Ga  Ga23  1  0.93242973  0.17892680  0.27122560  1
  Ag  Ag24  1  0.61358744  0.57483971  0.63080204  1
  Sb  Sb25  1  0.11874454  0.82214320  0.87639368  1
  Ag  Ag26  1  0.26779443  0.33141693  0.87554932  1
  Cd  Cd27  1  0.61141759  0.07865705  0.12522426  1
  Sb  Sb28  1  0.11996293  0.32696161  0.37746367  1
  Sb  Sb29  1  0.75801653  0.57674718  0.12525672  1
  Sb  Sb30  1  0.75659657  0.08608221  0.63481164  1
  Cd  Cd31  1  0.27140388  0.82303345  0.38533568  1
  Hg  Hg32  1  0.09781723  0.81970251  0.26766014  1
  Hg  Hg33  1  0.61535347  0.64859176  0.93150485  1
  Hg  Hg34  1  0.12339018  0.74636757  0.71795499  1
  Eu  Eu35  1  0.11289493  0.30128795  0.81655186  1
  Hg  Hg36  1  0.61416447  0.07432538  0.93415117  1
  Hg  Hg37  1  0.09792134  0.23209479  0.26519936  1
  Hg  Hg38  1  0.59293008  0.14294963  0.49071121  1
  Eu  Eu39  1  0.59309864  0.58975273  0.38454884  1
